files/angel_fire/Lines.dss
new line.angle_fire_ug4500008 bus1=node_back_basin.1.2.3 bus2=node_ug4500008.1.2.3 switch=n length=1541.33493095103 units=ft geometry=500-mcm-25kv-jacc:500-mcm-25kv-jacc:3 enabled=true phases=3 
new line.angle_fire_ug_4_26_72_2_0002 bus1=node_ocd21004917.1.2.3 bus2=node_ug_4_26_72_2_0002.1.2.3 switch=n length=333.131551068113 units=ft geometry=500-mcm-25kv-jacc:500-mcm-25kv-jacc:3 enabled=true phases=3 
new line.angle_fire_oh4500056 bus1=node_oh_4_26_73_1_0001.1.2.3 bus2=node_oh4500056.1.2.3 switch=n length=471.205403442415 units=ft geometry=500mcm-25kvrn:#4/0-acsr-6/1:3 enabled=true phases=3 
new line.angle_fire_ug4306328 bus1=node_ug_4_26_85_2_0001.1.2.3 bus2=node_ug4306328.1.2.3 switch=n length=681.512574314945 units=ft geometry=#4/0-25kv-jac:#4/0-25kv-jac:3 enabled=true phases=3 
new line.angle_fire_ug4303561 bus1=node_ug_4_26_85_2_0001.3 bus2=node_ug4303561.3 switch=n length=1035.58586804682 units=ft geometry=#4/0-25kv-jac:#4/0-25kv-jac:1 enabled=true phases=1 
new line.angle_fire_oh4307207 bus1=node_oh4307206.2 bus2=node_oh4307207.2 switch=n length=157.731210608537 units=ft geometry=none:none:1 enabled=true phases=1 
new line.angle_fire_ug4302949 bus1=node_oh4307206.1.2.3 bus2=node_ug4302949.1.2.3 switch=n length=52.6446064752487 units=ft geometry=#4/0-25kv-jac:#4/0-25kv-jac:3 enabled=true phases=3 
new line.angle_fire_oh4307162 bus1=node_ug4307161.1.2.3 bus2=node_oh4307162.1.2.3 switch=n length=394.144357437604 units=ft geometry=500mcm-25kvrn:#4/0-acsr-6/1:3 enabled=true phases=3 
new line.angle_fire_ug4500324 bus1=node_plaza.1.2.3 bus2=node_ug4500324.1.2.3 switch=n length=1553.04979244688 units=ft geometry=500-mcm-25kv-jacc:500-mcm-25kv-jacc:3 enabled=true phases=3 
new line.angle_fire_ug4500325 bus1=node_ocd21004916.1.2.3 bus2=node_ug4500325.1.2.3 switch=n length=324.959903786974 units=ft geometry=500-mcm-25kv-jacc:500-mcm-25kv-jacc:3 enabled=true phases=3 
new line.angle_fire_ug4500002 bus1=node_black_lake.1.2.3 bus2=node_ug4500002.1.2.3 switch=n length=1666.66091236599 units=ft geometry=#4/0-25kv-jac:#4/0-25kv-jac:3 enabled=true phases=3 
new line.angle_fire_ug4500030 bus1=node_ocd21004919.1.2.3 bus2=node_ug4500030.1.2.3 switch=n length=1565.39007151759 units=ft geometry=#4/0-25kv-jac:#4/0-25kv-jac:3 enabled=true phases=3 
new line.angle_fire_ug_4_25_79_2_0001 bus1=node_ocd21004957.1.2.3 bus2=node_ug_4_25_79_2_0001.1.2.3 switch=n length=587.358778276046 units=ft geometry=#4/0-25kv-jac:#4/0-25kv-jac:3 enabled=true phases=3 
new line.angle_fire_ug4500035 bus1=node_ocd21004957.1.2.3 bus2=node_ug4500035.1.2.3 switch=n length=4.37701466500211 units=ft geometry=#4/0-25kv-rn:#4/0-25kv-rn:3 enabled=true phases=3 
new line.angle_fire_ug_4_35_10_3_0004 bus1=node_ocd21004993.1.2.3 bus2=node_ug_4_35_10_3_0004.1.2.3 switch=n length=5746.31777790712 units=ft geometry=#4/0-25kv-jac:#4/0-25kv-jac:3 enabled=true phases=3 
new line.angle_fire_ug_4_25_100_1_0002 bus1=node_ocd21004993.1 bus2=node_ug_4_25_100_1_0002.1 switch=n length=344.336751725698 units=ft geometry=#1/0-25kv-jac:#1/0-25kv-jac:1 enabled=true phases=1 
new line.angle_fire_ug_4_35_9_4_0001 bus1=node_ocd21004971.3 bus2=node_ug_4_35_9_4_0001.3 switch=n length=553.713272629192 units=ft geometry=#4/0-25kv-jac:#4/0-25kv-jac:1 enabled=true phases=1 
new line.angle_fire_ug_4_35_10_3_0002 bus1=node_ocd21004971.1.2.3 bus2=node_ug_4_35_10_3_0002.1.2.3 switch=n length=716.525486721451 units=ft geometry=#4/0-25kv-jac:#4/0-25kv-jac:3 enabled=true phases=3 
new line.angle_fire_ug_4_26_91_3_4 bus1=node_ocd21004992.1 bus2=node_ug_4_26_91_3_4.1 switch=n length=39.3186004424967 units=ft geometry=#1/0-25kv-jac:#1/0-25kv-jac:1 enabled=true phases=1 
new line.angle_fire_ug_4_26_91_3_0001 bus1=node_ocd21004992.1 bus2=node_ug_4_26_91_3_0001.1 switch=n length=185.918520128822 units=ft geometry=#1/0-25kv-jac:#1/0-25kv-jac:1 enabled=true phases=1 
new line.angle_fire_ug_4_35_10_3_0003 bus1=node_ug_4_35_18_1_0003.1.2.3 bus2=node_ug_4_35_10_3_0003.1.2.3 switch=n length=703.412368144495 units=ft geometry=#4/0-25kv-jac:#4/0-25kv-jac:3 enabled=true phases=3 
new line.angle_fire_ug_4_25_100_1_0001 bus1=node_fuse_prefix_4_25_100_1_00.1 bus2=node_ug_4_25_100_1_0001.1 switch=n length=431.290592021739 units=ft geometry=#1/0-25kv-jac:#1/0-25kv-jac:1 enabled=true phases=1 
new line.angle_fire_ug_4_26_91_2_0004 bus1=node_fuse_prefix_4_26_91_2_000.1 bus2=node_ug_4_26_91_2_0004.1 switch=n length=227.673926279269 units=ft geometry=#1/0-25kv-jac:#1/0-25kv-jac:1 enabled=true phases=1 
new line.angle_fire_ug_4_26_92_1_0002 bus1=node_fuse_prefix_4_26_92_1_000.1 bus2=node_ug_4_26_92_1_0002.1 switch=n length=4.03446370864573 units=ft geometry=#1/0-25kv-jac:#1/0-25kv-jac:1 enabled=true phases=1 
new line.angle_fire_ug_4_26_82_3_0001 bus1=node_ug4500046.1.2.3 bus2=node_ug_4_26_82_3_0001.1.2.3 switch=n length=1429.109109028 units=ft geometry=#1/0-25kv-jac:#1/0-25kv-jac:3 enabled=true phases=3 
new line.angle_fire_ug_4_26_72_4_0002 bus1=node_ocd21004959.1.2.3 bus2=node_ug_4_26_72_4_0002.1.2.3 switch=n length=339.470546723529 units=ft geometry=#1/0-25kv-jac:#1/0-25kv-jac:3 enabled=true phases=3 
new line.angle_fire_ug4500045 bus1=node_ocd21004959.1.2.3 bus2=node_ug4500045.1.2.3 switch=n length=160.184928277115 units=ft geometry=#1/0-25kv-jac:#1/0-25kv-jac:3 enabled=true phases=3 
new line.angle_fire_ug_4_26_72_4_0003 bus1=node_ocd21004960.1.2.3 bus2=node_ug_4_26_72_4_0003.1.2.3 switch=n length=32.1209880417507 units=ft geometry=#1/0-25kv-jac:#1/0-25kv-jac:3 enabled=true phases=3 
!new line.angle_fire_[set_later] bus1=node_ug_4_26_82_3_0002.1.2.3 bus2=node_[set_later].1.2.3 switch=n length=339.96961347521 units=ft geometry=#1/0-25kv-jac:#1/0-25kv-jac:3 enabled=true phases=3 
!new line.angle_fire_[set_later]2 bus1=node_ocd21004989.1.2.3 bus2=node_[set_later]2.1.2.3 switch=n length=339.96961347521 units=ft geometry=#1/0-25kv-jac:#1/0-25kv-jac:3 enabled=true phases=3 
new line.angle_fire_ug_4_26_82_3_0003 bus1=node_ocd21004989.1 bus2=node_ug_4_26_82_3_0003.1 switch=n length=15.6490940777643 units=ft geometry=#1/0-25kv-jac:#1/0-25kv-jac:1 enabled=true phases=1 
new line.angle_fire_ug_4_26_82_3_0002 bus1=node_ug_4_26_82_3_0001.1.2.3 bus2=node_ug_4_26_82_3_0002.1.2.3 switch=n length=648.180746530592 units=ft geometry=#1/0-25kv-jac:#1/0-25kv-jac:3 enabled=true phases=3 
new line.angle_fire_ug_4_25_79_2_3 bus1=node_ug_4_25_79_2_0001.1.2.3 bus2=node_ug_4_25_79_2_3.1.2.3 switch=n length=1394.47495871993 units=ft geometry=#1/0-15kv-fn:#1/0-15kv-fn:3 enabled=true phases=3 
new line.angle_fire_ug_4_25_90_1_0001 bus1=node_ug_4_25_79_2_0001.1.2.3 bus2=node_ug_4_25_90_1_0001.1.2.3 switch=n length=420.728378395904 units=ft geometry=#4/0-25kv-jac:#4/0-25kv-jac:3 enabled=true phases=3 
new line.angle_fire_ug_4_25_79_2_0002 bus1=node_ocd21004958.3 bus2=node_ug_4_25_79_2_0002.3 switch=n length=710.440185533987 units=ft geometry=#1/0-15kv-fn:#1/0-15kv-fn:1 enabled=true phases=1 
new line.angle_fire_ug_4_25_78_4_0001 bus1=node_ug4500370.1.2.3 bus2=node_ug_4_25_78_4_0001.1.2.3 switch=n length=46.7821807812075 units=ft geometry=#4/0-25kv-rn:#4/0-25kv-rn:3 enabled=true phases=3 
new line.angle_fire_ug_4_25_88_2_0002 bus1=node_ug_4_25_88_1_2.1.2.3 bus2=node_ug_4_25_88_2_0002.1.2.3 switch=n length=359.702251893047 units=ft geometry=#1/0-25kv-jac:#1/0-25kv-jac:3 enabled=true phases=3 
new line.angle_fire_ug_4_25_88_2_5 bus1=node_ocd21004777.1 bus2=node_ug_4_25_88_2_5.1 switch=n length=9.61702135456295 units=ft geometry=#1/0-25kv-jac:#1/0-25kv-jac:1 enabled=true phases=1 
new line.angle_fire_ug_4_25_88_2_0001 bus1=node_ocd21004776.1.2.3 bus2=node_ug_4_25_88_2_0001.1.2.3 switch=n length=219.344006334612 units=ft geometry=#1/0-25kv-jac:#1/0-25kv-jac:3 enabled=true phases=3 
new line.angle_fire_ug_4_25_78_3_0004 bus1=node_ocd21004775.1.2.3 bus2=node_ug_4_25_78_3_0004.1.2.3 switch=n length=414.62232685103 units=ft geometry=#1/0-25kv-jac:#1/0-25kv-jac:3 enabled=true phases=3 
new line.angle_fire_ug_4_25_88_2_0003 bus1=node_ocd21004775.3 bus2=node_ug_4_25_88_2_0003.3 switch=n length=267.333577554521 units=ft geometry=#1/0-25kv-jac:#1/0-25kv-jac:1 enabled=true phases=1 
new line.angle_fire_ug_4_25_78_3_0003 bus1=node_ocd21004774.1.2.3 bus2=node_ug_4_25_78_3_0003.1.2.3 switch=n length=411.552365788002 units=ft geometry=#1/0-25kv-jac:#1/0-25kv-jac:3 enabled=true phases=3 
new line.angle_fire_ug_4_25_78_3_0002 bus1=node_ocd21004773.1.2.3 bus2=node_ug_4_25_78_3_0002.1.2.3 switch=n length=414.795377891593 units=ft geometry=#1/0-25kv-jac:#1/0-25kv-jac:3 enabled=true phases=3 
new line.angle_fire_ug_4_25_78_3_0001 bus1=node_ocd21004772.1.2.3 bus2=node_ug_4_25_78_3_0001.1.2.3 switch=n length=352.610625865673 units=ft geometry=#1/0-25kv-jac:#1/0-25kv-jac:3 enabled=true phases=3 
new line.angle_fire_ug_4_25_88_1_0002 bus1=node_ocd21004771.1.2.3 bus2=node_ug_4_25_88_1_0002.1.2.3 switch=n length=293.367010752075 units=ft geometry=#1/0-25kv-jac:#1/0-25kv-jac:3 enabled=true phases=3 
new line.angle_fire_ug_4_25_88_1_0001 bus1=node_ocd21004770.1.2.3 bus2=node_ug_4_25_88_1_0001.1.2.3 switch=n length=371.944486187778 units=ft geometry=#1/0-25kv-jac:#1/0-25kv-jac:3 enabled=true phases=3 
new line.angle_fire_ug_4_25_87_2_0002 bus1=node_ocd21004769.1.2.3 bus2=node_ug_4_25_87_2_0002.1.2.3 switch=n length=464.354339067593 units=ft geometry=#1/0-25kv-jac:#1/0-25kv-jac:3 enabled=true phases=3 
new line.angle_fire_ug_4_25_87_2_0001 bus1=node_ocd21004768.1.2.3 bus2=node_ug_4_25_87_2_0001.1.2.3 switch=n length=309.449347904206 units=ft geometry=#1/0-25kv-jac:#1/0-25kv-jac:3 enabled=true phases=3 
new line.angle_fire_ug_4_25_87_4_0002 bus1=node_ocd21004767.1.2.3 bus2=node_ug_4_25_87_4_0002.1.2.3 switch=n length=500.765783419274 units=ft geometry=#1/0-25kv-jac:#1/0-25kv-jac:3 enabled=true phases=3 
new line.angle_fire_ug_4_25_87_4_0001 bus1=node_ocd21004766.1.2.3 bus2=node_ug_4_25_87_4_0001.1.2.3 switch=n length=519.390262615766 units=ft geometry=#1/0-25kv-jac:#1/0-25kv-jac:3 enabled=true phases=3 
new line.angle_fire_ug_4_25_97_2_0001 bus1=node_ocd21004765.1.2.3 bus2=node_ug_4_25_97_2_0001.1.2.3 switch=n length=390.504573711071 units=ft geometry=#1/0-25kv-jac:#1/0-25kv-jac:3 enabled=true phases=3 
new line.angle_fire_ug_4_25_97_1_0002 bus1=node_ocd21004801.1.2.3 bus2=node_ug_4_25_97_1_0002.1.2.3 switch=n length=281.634756145209 units=ft geometry=#1/0-25kv-jac:#1/0-25kv-jac:3 enabled=true phases=3 
new line.angle_fire_ug_4_25_97_1_0001 bus1=node_ocd21004800.1.2.3 bus2=node_ug_4_25_97_1_0001.1.2.3 switch=n length=315.960330566501 units=ft geometry=#1/0-25kv-jac:#1/0-25kv-jac:3 enabled=true phases=3 
new line.angle_fire_ug_4_25_97_3_0001 bus1=node_ocd21004799.1.2.3 bus2=node_ug_4_25_97_3_0001.1.2.3 switch=n length=340.356248839161 units=ft geometry=#1/0-25kv-jac:#1/0-25kv-jac:3 enabled=true phases=3 
new line.angle_fire_ug_4_25_97_3_0003 bus1=node_ocd21004806.1.2.3 bus2=node_ug_4_25_97_3_0003.1.2.3 switch=n length=299.986981262613 units=ft geometry=#1/0-25kv-jac:#1/0-25kv-jac:3 enabled=true phases=3 
new line.angle_fire_ug_4_25_97_3_0002 bus1=node_ocd21004805.1.2.3 bus2=node_ug_4_25_97_3_0002.1.2.3 switch=n length=329.096036970488 units=ft geometry=#1/0-25kv-jac:#1/0-25kv-jac:3 enabled=true phases=3 
new line.angle_fire_ug_4_25_97_4_0001 bus1=node_ocd21004804.1.2.3 bus2=node_ug_4_25_97_4_0001.1.2.3 switch=n length=210.474147453191 units=ft geometry=#1/0-25kv-jac:#1/0-25kv-jac:3 enabled=true phases=3 
new line.angle_fire_ug_4_35_7_1_0002 bus1=node_ocd21004803.1.2.3 bus2=node_ug_4_35_7_1_0002.1.2.3 switch=n length=240.185756938616 units=ft geometry=#1/0-25kv-jac:#1/0-25kv-jac:3 enabled=true phases=3 
new line.angle_fire_ug_4_35_7_1_0001 bus1=node_fuse_prefix_4_35_7_1_0002.1.2.3 bus2=node_ug_4_35_7_1_0001.1.2.3 switch=n length=420.076103089352 units=ft geometry=#1/0-25kv-jac:#1/0-25kv-jac:3 enabled=true phases=3 
new line.angle_fire_ug_4_35_7_3_0004 bus1=node_fuse_prefix_4_35_7_1_0001.1.2.3 bus2=node_ug_4_35_7_3_0004.1.2.3 switch=n length=347.648418492117 units=ft geometry=#1/0-25kv-jac:#1/0-25kv-jac:3 enabled=true phases=3 
new line.angle_fire_ug_4_35_7_3_0003 bus1=node_fuse_prefix_4_35_7_3_0004.1.2.3 bus2=node_ug_4_35_7_3_0003.1.2.3 switch=n length=466.758133733299 units=ft geometry=#1/0-25kv-jac:#1/0-25kv-jac:3 enabled=true phases=3 
new line.angle_fire_ug_4_35_7_3_0002 bus1=node_fuse_prefix_4_35_7_3_0003.1.2.3 bus2=node_ug_4_35_7_3_0002.1.2.3 switch=n length=401.853661515701 units=ft geometry=#1/0-25kv-jac:#1/0-25kv-jac:3 enabled=true phases=3 
new line.angle_fire_ug_4_35_7_3_0001 bus1=node_fuse_prefix_4_35_7_3_0002.1.2.3 bus2=node_ug_4_35_7_3_0001.1.2.3 switch=n length=286.812602850202 units=ft geometry=#1/0-25kv-jac:#1/0-25kv-jac:3 enabled=true phases=3 
new line.angle_fire_ug_4_35_17_1_0001 bus1=node_fuse_prefix_4_35_7_3_0001.1.2.3 bus2=node_ug_4_35_17_1_0001.1.2.3 switch=n length=608.851000027242 units=ft geometry=#1/0-25kv-jac:#1/0-25kv-jac:3 enabled=true phases=3 
new line.angle_fire_ug4490008 bus1=node_fuse_prefix_4_35_7_3_0001.3 bus2=node_ug4490008.3 switch=n length=360.864944113021 units=ft geometry=#4/0-25kv-jac:#4/0-25kv-jac:1 enabled=true phases=1 
new line.angle_fire_ug_4_25_97_1_0003 bus1=node_ug_4_25_97_2_0001.1.2.3 bus2=node_ug_4_25_97_1_0003.1.2.3 switch=n length=385.416164468636 units=ft geometry=#1/0-25kv-jac:#1/0-25kv-jac:3 enabled=true phases=3 
new line.angle_fire_ug4500005 bus1=node_ocd21004921.1.2.3 bus2=node_ug4500005.1.2.3 switch=n length=1191.68807700834 units=ft geometry=#4/0-25kv-jac:#4/0-25kv-jac:3 enabled=true phases=3 
new line.angle_fire_ug4500006 bus1=node_ocd21004928.1.2.3 bus2=node_ug4500006.1.2.3 switch=n length=893.676124247946 units=ft geometry=#4/0-25kv-jac:#4/0-25kv-jac:3 enabled=true phases=3 
new line.angle_fire_ug4500007 bus1=node_ocd21004929.1.2.3 bus2=node_ug4500007.1.2.3 switch=n length=1082.79302801404 units=ft geometry=#4/0-25kv-jac:#4/0-25kv-jac:3 enabled=true phases=3 
new line.angle_fire_ug_4_36_23_3_0001 bus1=node_ocd21004931.1.2.3 bus2=node_ug_4_36_23_3_0001.1.2.3 switch=n length=1203.53962436565 units=ft geometry=#4/0-25kv-jac:#4/0-25kv-jac:3 enabled=true phases=3 
new line.angle_fire_ug_4_36_23_3_0002 bus1=node_ocd21004933.1.2.3 bus2=node_ug_4_36_23_3_0002.1.2.3 switch=n length=1338.51740637852 units=ft geometry=#4/0-25kv-jac:#4/0-25kv-jac:3 enabled=true phases=3 
new line.angle_fire_ug_4_36_23_3_0003 bus1=node_ocd21004935.1.2.3 bus2=node_ug_4_36_23_3_0003.1.2.3 switch=n length=845.544259153842 units=ft geometry=#4/0-25kv-jac:#4/0-25kv-jac:3 enabled=true phases=3 
new line.angle_fire_ug4600006 bus1=node_ocd21004937.1.2.3 bus2=node_ug4600006.1.2.3 switch=n length=489.75043699264 units=ft geometry=#4/0-25kv-jac:#4/0-25kv-jac:3 enabled=true phases=3 
new line.angle_fire_ug4600005 bus1=node_ocd21004937.3 bus2=node_ug4600005.3 switch=n length=90.7701624804579 units=ft geometry=#1/0-25kv-jac:#1/0-25kv-jac:1 enabled=true phases=1 
new line.angle_fire_ug_4_36_42_2_0006 bus1=node_ocd21004938.1.2.3 bus2=node_ug_4_36_42_2_0006.1.2.3 switch=n length=1328.73329027979 units=ft geometry=#4/0-25kv-jac:#4/0-25kv-jac:3 enabled=true phases=3 
new line.angle_fire_ug_4_36_42_2_0008 bus1=node_ocd21004940.1.2.3 bus2=node_ug_4_36_42_2_0008.1.2.3 switch=n length=608.665424978579 units=ft geometry=#4/0-25kv-jac:#4/0-25kv-jac:3 enabled=true phases=3 
new line.angle_fire_ug4600102 bus1=node_ocd21004986.1.2.3 bus2=node_ug4600102.1.2.3 switch=n length=237.525717414565 units=ft geometry=#4/0-25kv-jac:#4/0-25kv-jac:3 enabled=true phases=3 
new line.angle_fire_ug4600097 bus1=node_ocd21004986.1.2.3 bus2=node_ug4600097.1.2.3 switch=n length=764.373176073464 units=ft geometry=#1/0-25kv-jac:#1/0-25kv-jac:3 enabled=true phases=3 
new line.angle_fire_oh4600089 bus1=node_oh4600008.3 bus2=node_oh4600089.3 switch=n length=121.006714276559 units=ft geometry=none:none:1 enabled=true phases=1 
new line.angle_fire_oh4600009 bus1=node_oh4600008.1.2.3 bus2=node_oh4600009.1.2.3 switch=n length=87.6299748944854 units=ft geometry=#4-acsr-6/1:#4-acsr-6/1:3 enabled=true phases=3 
new line.angle_fire_oh4600010 bus1=node_4600008.1.2.3 bus2=node_oh4600010.1.2.3 switch=n length=823.779918965964 units=ft geometry=#1/0-25kv-jac:#1/0-25kv-jac:3 enabled=true phases=3 
new line.angle_fire_oh4600076 bus1=node_oh4600010.3 bus2=node_oh4600076.3 switch=n length=508.600775162932 units=ft geometry=#4-acsr-6/1:#4-acsr-6/1:1 enabled=true phases=1 
new line.angle_fire_oh4600011 bus1=node_4600010.1.2.3 bus2=node_oh4600011.1.2.3 switch=n length=1215.27489964556 units=ft geometry=#1/0-acsr-6/1:#2-acsr-6/1:3 enabled=true phases=3 
new line.angle_fire_oh4600016 bus1=node_oh4600015.1.2.3 bus2=node_oh4600016.1.2.3 switch=n length=391.807615673988 units=ft geometry=#1/0-acsr-6/1:#2-acsr-6/1:3 enabled=true phases=3 
new line.angle_fire_oh4600078 bus1=node_cp571119942.3 bus2=node_oh4600078.3 switch=n length=317.088017118321 units=ft geometry=#4-acsr-6/1:#4-acsr-6/1:1 enabled=true phases=1 
new line.angle_fire_oh4600082 bus1=node_oh4600081.3 bus2=node_oh4600082.3 switch=n length=382.114059542315 units=ft geometry=#4-acsr-6/1:#4-acsr-6/1:1 enabled=true phases=1 
new line.angle_fire_ug4600163 bus1=node_4600011.3 bus2=node_ug4600163.3 switch=n length=462.556049036116 units=ft geometry=#1/0-25kv-jac:#1/0-25kv-jac:1 enabled=true phases=1 
new line.angle_fire_oh4600018 bus1=node_86749-86747-86750.1.2.3 bus2=node_oh4600018.1.2.3 switch=n length=148.977526781618 units=ft geometry=#1/0-acsr-6/1:#2-acsr-6/1:3 enabled=true phases=3 
new line.angle_fire_oh4600052 bus1=node_oh4600051.3 bus2=node_oh4600052.3 switch=n length=90.215883856621 units=ft geometry=#4-acsr-6/1:#4-acsr-6/1:1 enabled=true phases=1 
new line.angle_fire_ug4600002 bus1=node_4600005.3 bus2=node_ug4600002.3 switch=n length=211.014506610369 units=ft geometry=#1/0-25kv-jac:#1/0-25kv-jac:1 enabled=true phases=1 
new line.angle_fire_ug4600164 bus1=node_4600006.3 bus2=node_ug4600164.3 switch=n length=491.169379033494 units=ft geometry=#1/0-25kv-jac:#1/0-25kv-jac:1 enabled=true phases=1 
new line.angle_fire_oh4600048 bus1=node_oh4600046.3 bus2=node_oh4600048.3 switch=n length=295.336684529431 units=ft geometry=#4-acsr-6/1:#4-acsr-6/1:1 enabled=true phases=1 
new line.angle_fire_oh4600047 bus1=node_oh4600046.3 bus2=node_oh4600047.3 switch=n length=362.876858727543 units=ft geometry=#4-acsr-6/1:#4-acsr-6/1:1 enabled=true phases=1 
new line.angle_fire_ug4600001 bus1=node_4600004.3 bus2=node_ug4600001.3 switch=n length=371.974322769737 units=ft geometry=#1/0-25kv-jac:#1/0-25kv-jac:1 enabled=true phases=1 
new line.angle_fire_oh4600038 bus1=node_oh4600037.3 bus2=node_oh4600038.3 switch=n length=124.524133747583 units=ft geometry=#4-acsr-6/1:#4-acsr-6/1:1 enabled=true phases=1 
new line.angle_fire_oh4700007 bus1=node_oh4700006.1.2.3 bus2=node_oh4700007.1.2.3 switch=n length=355.868846065547 units=ft geometry=#1/0-acsr-6/1:#2-acsr-6/1:3 enabled=true phases=3 
new line.angle_fire_ug4700010 bus1=node_4700003.3 bus2=node_ug4700010.3 switch=n length=175.241736181954 units=ft geometry=#1/0-25kv-jac:#1/0-25kv-jac:1 enabled=true phases=1 
new line.angle_fire_oh4301590 bus1=node_oh4301589.1.2.3 bus2=node_oh4301590.1.2.3 switch=n length=373.633599265497 units=ft geometry=#1/0-acsr-6/1:#2-acsr-6/1:3 enabled=true phases=3 
new line.angle_fire_ug4302831 bus1=node_ocd4302830.3 bus2=node_ug4302831.3 switch=n length=1088.25780847187 units=ft geometry=#1/0-25kv-jac:#1/0-25kv-jac:1 enabled=true phases=1 
new line.angle_fire_oh42861 bus1=node_069860b1-097861-cp5711199.1.2.3 bus2=node_oh42861.1.2.3 switch=n length=218.342218775885 units=ft geometry=#1/0-acsr-6/1:#2-acsr-6/1:3 enabled=true phases=3 
new line.angle_fire_oh42872 bus1=node_oh4302086.1.2.3 bus2=node_oh42872.1.2.3 switch=n length=171.240604121627 units=ft geometry=#1/0-acsr-6/1:#2-acsr-6/1:3 enabled=true phases=3 
new line.angle_fire_oh42873 bus1=node_ocd4302857.3 bus2=node_oh42873.3 switch=n length=385.584152812485 units=ft geometry=#4-acsr-6/1:#4-acsr-6/1:1 enabled=true phases=1 
new line.angle_fire_oh4302275 bus1=node_oh4302103.3 bus2=node_oh4302275.3 switch=n length=359.433385344146 units=ft geometry=#4-acsr-6/1:#4-acsr-6/1:1 enabled=true phases=1 
new line.angle_fire_ug4302104 bus1=node_ocd4302859.3 bus2=node_ug4302104.3 switch=n length=297.899711480065 units=ft geometry=500-mcm-25kv-jacc:500-mcm-25kv-jacc:1 enabled=true phases=1 
new line.angle_fire_oh4302305 bus1=node_oh4302301.3 bus2=node_oh4302305.3 switch=n length=11.7947657881588 units=ft geometry=trip-#1/0:trip-#1/0:1 enabled=true phases=1 
new line.angle_fire_oh4302302 bus1=node_oh4302301.3 bus2=node_oh4302302.3 switch=n length=309.480311005349 units=ft geometry=#4-acsr-6/1:#4-acsr-6/1:1 enabled=true phases=1 
new line.angle_fire_ug4302308 bus1=node_ocd4302555.3 bus2=node_ug4302308.3 switch=n length=339.038662102125 units=ft geometry=#1/0-25kv-jac:#1/0-25kv-jac:1 enabled=true phases=1 
new line.angle_fire_oh4302322 bus1=node_oh4302317.3 bus2=node_oh4302322.3 switch=n length=253.471222824046 units=ft geometry=#4-acsr-6/1:#4-acsr-6/1:1 enabled=true phases=1 
new line.angle_fire_ug4302318 bus1=node_ocd4302556.3 bus2=node_ug4302318.3 switch=n length=160.223773828987 units=ft geometry=#1/0-25kv-jac:#1/0-25kv-jac:1 enabled=true phases=1 
new line.angle_fire_ug4302326 bus1=node_ocd4302557.3 bus2=node_ug4302326.3 switch=n length=74.0820086120532 units=ft geometry=#1/0-25kv-jac:#1/0-25kv-jac:1 enabled=true phases=1 
new line.angle_fire_oh4302214 bus1=node_oh4302087.1.2.3 bus2=node_oh4302214.1.2.3 switch=n length=505.101621854315 units=ft geometry=#1/0-acsr-6/1:#2-acsr-6/1:3 enabled=true phases=3 
new line.angle_fire_oh43316 bus1=node_ocd4302874.3 bus2=node_oh43316.3 switch=n length=373.602645868606 units=ft geometry=#4-acsr-6/1:#4-acsr-6/1:1 enabled=true phases=1 
new line.angle_fire_oh4302485 bus1=node_oh4302475.1.2.3 bus2=node_oh4302485.1.2.3 switch=n length=386.452131058875 units=ft geometry=#1/0-acsr-6/1:#2-acsr-6/1:3 enabled=true phases=3 
new line.angle_fire_oh4302483 bus1=node_ocd4302879.3 bus2=node_oh4302483.3 switch=n length=224.551204183099 units=ft geometry=#1/0-25kv-jac:#1/0-25kv-jac:1 enabled=true phases=1 
new line.angle_fire_oh4302489 bus1=node_oh4302485.1.2.3 bus2=node_oh4302489.1.2.3 switch=n length=156.870892137674 units=ft geometry=#1/0-acsr-6/1:#2-acsr-6/1:3 enabled=true phases=3 
new line.angle_fire_ug4302486 bus1=node_ocd4302881.3 bus2=node_ug4302486.3 switch=n length=245.694349344778 units=ft geometry=#1/0-25kv-jac:#1/0-25kv-jac:1 enabled=true phases=1 
new line.angle_fire_oh4302548 bus1=node_oh4302547.3 bus2=node_oh4302548.3 switch=n length=505.681179598359 units=ft geometry=#4-acsr-6/1:#4-acsr-6/1:1 enabled=true phases=1 
new line.angle_fire_ug4302549 bus1=node_ocd4302887.3 bus2=node_ug4302549.3 switch=n length=577.544735063799 units=ft geometry=#1/0-25kv-jac:#1/0-25kv-jac:1 enabled=true phases=1 
new line.angle_fire_oh4302556 bus1=node_oh4302552.3 bus2=node_oh4302556.3 switch=n length=166.514308093908 units=ft geometry=#4-acsr-6/1:#4-acsr-6/1:1 enabled=true phases=1 
new line.angle_fire_ug4302553 bus1=node_ocd4302893.3 bus2=node_ug4302553.3 switch=n length=202.572179975339 units=ft geometry=#1/0-25kv-jac:#1/0-25kv-jac:1 enabled=true phases=1 
new line.angle_fire_ug4302566 bus1=node_ocd4302898.3 bus2=node_ug4302566.3 switch=n length=374.241659893727 units=ft geometry=#1/0-25kv-jac:#1/0-25kv-jac:1 enabled=true phases=1 
new line.angle_fire_oh4302668 bus1=node_oh42978.3 bus2=node_oh4302668.3 switch=n length=436.425290971904 units=ft geometry=#4-acsr-6/1:#4-acsr-6/1:1 enabled=true phases=1 
new line.angle_fire_oh42977 bus1=node_oh42978.3 bus2=node_oh42977.3 switch=n length=154.769478257175 units=ft geometry=#4-acsr-6/1:#4-acsr-6/1:1 enabled=true phases=1 
new line.angle_fire_ug4302673 bus1=node_ocd4304069.3 bus2=node_ug4302673.3 switch=n length=988.01954322755 units=ft geometry=#1/0-25kv-jac:#1/0-25kv-jac:1 enabled=true phases=1 
new line.angle_fire_oh42971 bus1=node_oh42973.3 bus2=node_oh42971.3 switch=n length=212.742808338958 units=ft geometry=#4-acsr-6/1:#4-acsr-6/1:1 enabled=true phases=1 
new line.angle_fire_ug4300066 bus1=node_ocd4307564.3 bus2=node_ug4300066.3 switch=n length=510.889079546674 units=ft geometry=#1/0-25kv-jac:#1/0-25kv-jac:1 enabled=true phases=1 
new line.angle_fire_ug4302674 bus1=node_ocd4304070.3 bus2=node_ug4302674.3 switch=n length=806.179135738361 units=ft geometry=#4/0-trip-600a:#4/0-trip-600a:1 enabled=true phases=1 
new line.angle_fire_oh4302271 bus1=node_oh42989.1.2.3 bus2=node_oh4302271.1.2.3 switch=n length=356.643286022927 units=ft geometry=#1/0-acsr-6/1:#2-acsr-6/1:3 enabled=true phases=3 
new line.angle_fire_ug4306734 bus1=node_ocd4302558.3 bus2=node_ug4306734.3 switch=n length=463.57819692721 units=ft geometry=#1/0-25kv-jaccic:#1/0-25kv-jaccic:1 enabled=true phases=1 
new line.angle_fire_ug4300047 bus1=node_ocd4302560.3 bus2=node_ug4300047.3 switch=n length=626.551391188374 units=ft geometry=#1/0-25kv-jac:#1/0-25kv-jac:1 enabled=true phases=1 
new line.angle_fire_ug4307530 bus1=node_ug4307527.3 bus2=node_ug4307530.3 switch=n length=347.996072459578 units=ft geometry=#1/0-25kv-jac:#1/0-25kv-jac:1 enabled=true phases=1 
new line.angle_fire_ug_4_57_18_4_0001 bus1=node_fuse_prefix_4_57_18_4_000.3 bus2=node_ug_4_57_18_4_0001.3 switch=n length=220.102879772437 units=ft geometry=#1/0-25kv-jac:#1/0-25kv-jac:1 enabled=true phases=1 
new line.angle_fire_ug4300145 bus1=node_ocd4302559.3 bus2=node_ug4300145.3 switch=n length=393.191529537533 units=ft geometry=#1/0-25kv-jac:#1/0-25kv-jac:1 enabled=true phases=1 
new line.angle_fire_oh4302496 bus1=node_oh4302492.3 bus2=node_oh4302496.3 switch=n length=433.621988487586 units=ft geometry=#4-acsr-6/1:#4-acsr-6/1:1 enabled=true phases=1 
new line.angle_fire_ug4302497 bus1=node_ocd4302883.3 bus2=node_ug4302497.3 switch=n length=1432.68930438529 units=ft geometry=#1/0-25kv-jac:#1/0-25kv-jac:1 enabled=true phases=1 
new line.angle_fire_oh43238 bus1=node_44064.3 bus2=node_oh43238.3 switch=n length=624.008375985408 units=ft geometry=#4-acsr-6/1:#4-acsr-6/1:1 enabled=true phases=1 
new line.angle_fire_oh43241 bus1=node_oh43238.3 bus2=node_oh43241.3 switch=n length=502.922717323411 units=ft geometry=#4-acsr-6/1:#4-acsr-6/1:1 enabled=true phases=1 
new line.angle_fire_oh43239 bus1=node_ocd4302553.3 bus2=node_oh43239.3 switch=n length=203.940525153812 units=ft geometry=#4-acsr-6/1:#4-acsr-6/1:1 enabled=true phases=1 
new line.angle_fire_oh43242 bus1=node_oh43241.3 bus2=node_oh43242.3 switch=n length=449.618287550605 units=ft geometry=#4-acsr-6/1:#4-acsr-6/1:1 enabled=true phases=1 
new line.angle_fire_ug4303233 bus1=node_ocd4303232.3 bus2=node_ug4303233.3 switch=n length=134.470576707339 units=ft geometry=none:none:1 enabled=true phases=1 
new line.angle_fire_oh4303234 bus1=node_ug4303233.3 bus2=node_oh4303234.3 switch=n length=715.527234422282 units=ft geometry=#4-acsr-6/1:#4-acsr-6/1:1 enabled=true phases=1 
new line.angle_fire_ug4303237 bus1=node_ocd4308071.3 bus2=node_ug4303237.3 switch=n length=641.537882357837 units=ft geometry=#1/0-25kv-jac:#1/0-25kv-jac:1 enabled=true phases=1 
new line.angle_fire_ug_4_56_39_3_0001 bus1=node_ug4303237.3 bus2=node_ug_4_56_39_3_0001.3 switch=n length=2.55050259164293 units=ft geometry=#1/0-25kv-jac:#1/0-25kv-jac:1 enabled=true phases=1 
new line.angle_fire_ug4303239 bus1=node_ug4303237.3 bus2=node_ug4303239.3 switch=n length=232.400095739962 units=ft geometry=#1/0-25kv-jac:#1/0-25kv-jac:1 enabled=true phases=1 
new line.angle_fire_ug4303242 bus1=node_ug4303237.3 bus2=node_ug4303242.3 switch=n length=1138.20447886121 units=ft geometry=#1/0-25kv-jac:#1/0-25kv-jac:1 enabled=true phases=1 
new line.angle_fire_ug4303238 bus1=node_ug4303237.3 bus2=node_ug4303238.3 switch=n length=214.678109270591 units=ft geometry=#1/0-25kv-jac:#1/0-25kv-jac:1 enabled=true phases=1 
new line.angle_fire_ug4303248 bus1=node_ug4303247.3 bus2=node_ug4303248.3 switch=n length=1024.93627972264 units=ft geometry=#1/0-25kv-jac:#1/0-25kv-jac:1 enabled=true phases=1 
new line.angle_fire_ug_4_56_38_3_0001 bus1=node_fuse_prefix_4_56_38_3_000.3 bus2=node_ug_4_56_38_3_0001.3 switch=n length=310.525915504376 units=ft geometry=#1/0-25kv-jac:#1/0-25kv-jac:1 enabled=true phases=1 
new line.angle_fire_oh4301506 bus1=node_ocd4302328.3 bus2=node_oh4301506.3 switch=n length=543.655661701381 units=ft geometry=#4-acsr-6/1:#4-acsr-6/1:1 enabled=true phases=1 
new line.angle_fire_oh4700148 bus1=node_oh4700147.3 bus2=node_oh4700148.3 switch=n length=364.808985772007 units=ft geometry=#4-acsr-6/1:#4-acsr-6/1:1 enabled=true phases=1 
new line.angle_fire_oh4700149 bus1=node_oh4700147.3 bus2=node_oh4700149.3 switch=n length=514.996841932026 units=ft geometry=#4-acsr-6/1:#4-acsr-6/1:1 enabled=true phases=1 
new line.angle_fire_ug4700039 bus1=node_4700016.3 bus2=node_ug4700039.3 switch=n length=365.701624005197 units=ft geometry=#1/0-25kv-jac:#1/0-25kv-jac:1 enabled=true phases=1 
new line.angle_fire_ug4700036 bus1=node_4700015.3 bus2=node_ug4700036.3 switch=n length=128.634151763966 units=ft geometry=#1/0-25kv-jac:#1/0-25kv-jac:1 enabled=true phases=1 
new line.angle_fire_oh4700150 bus1=node_oh4700149.3 bus2=node_oh4700150.3 switch=n length=155.071404520692 units=ft geometry=#4-acsr-6/1:#4-acsr-6/1:1 enabled=true phases=1 
new line.angle_fire_ug4700031 bus1=node_4700017.3 bus2=node_ug4700031.3 switch=n length=18.3695714349805 units=ft geometry=#1/0-25kv-jac:#1/0-25kv-jac:1 enabled=true phases=1 
new line.angle_fire_ug4700033 bus1=node_4700018.3 bus2=node_ug4700033.3 switch=n length=305.726091951575 units=ft geometry=500-mcm-25kv-jacc:500-mcm-25kv-jacc:1 enabled=true phases=1 
new line.angle_fire_ug4600165 bus1=node_4600012.3 bus2=node_ug4600165.3 switch=n length=459.536319565786 units=ft geometry=#1/0-25kv-jac:#1/0-25kv-jac:1 enabled=true phases=1 
new line.angle_fire_oh4700057 bus1=node_oh4700056.3 bus2=node_oh4700057.3 switch=n length=542.968793394386 units=ft geometry=#4-acsr-6/1:#4-acsr-6/1:1 enabled=true phases=1 
new line.angle_fire_ug4700011 bus1=node_4700006.3 bus2=node_ug4700011.3 switch=n length=536.945718858001 units=ft geometry=#1/0-25kv-jac:#1/0-25kv-jac:1 enabled=true phases=1 
new line.angle_fire_oh4700048 bus1=node_oh4700047.3 bus2=node_oh4700048.3 switch=n length=216.918586110237 units=ft geometry=#4-acsr-6/1:#4-acsr-6/1:1 enabled=true phases=1 
new line.angle_fire_oh4304050 bus1=node_oh43133.3 bus2=node_oh4304050.3 switch=n length=596.418535731383 units=ft geometry=#4-acsr-6/1:#4-acsr-6/1:1 enabled=true phases=1 
new line.angle_fire_ug43174 bus1=node_ocd4302547.3 bus2=node_ug43174.3 switch=n length=137.07968850276 units=ft geometry=#1/0-25kv-jac:#1/0-25kv-jac:1 enabled=true phases=1 
new line.angle_fire_oh4700036 bus1=node_oh4700034.3 bus2=node_oh4700036.3 switch=n length=357.824355794713 units=ft geometry=#4-acsr-6/1:#4-acsr-6/1:1 enabled=true phases=1 
new line.angle_fire_ug4700005 bus1=node_4700004.3 bus2=node_ug4700005.3 switch=n length=680.873653917489 units=ft geometry=#1/0-25kv-jac:#1/0-25kv-jac:1 enabled=true phases=1 
new line.angle_fire_ug4300074 bus1=node_4700005.3 bus2=node_ug4300074.3 switch=n length=860.502084192813 units=ft geometry=#1/0-25kv-jac:#1/0-25kv-jac:1 enabled=true phases=1 
new line.angle_fire_oh4700047 bus1=node_oh4700008.3 bus2=node_oh4700047.3 switch=n length=270.121888228138 units=ft geometry=#4-acsr-6/1:#4-acsr-6/1:1 enabled=true phases=1 
new line.angle_fire_oh4700009 bus1=node_oh4700008.3 bus2=node_oh4700009.3 switch=n length=82.3554357647436 units=ft geometry=#4-acsr-6/1:#4-acsr-6/1:1 enabled=true phases=1 
new line.angle_fire_oh4700056 bus1=node_oh4600028.3 bus2=node_oh4700056.3 switch=n length=535.120987067249 units=ft geometry=#4-acsr-6/1:#4-acsr-6/1:1 enabled=true phases=1 
new line.angle_fire_oh4600065 bus1=node_cp571113950.3 bus2=node_oh4600065.3 switch=n length=548.21849366833 units=ft geometry=#4-acsr-6/1:#4-acsr-6/1:1 enabled=true phases=1 
new line.angle_fire_oh4700096 bus1=node_oh4700095.3 bus2=node_oh4700096.3 switch=n length=296.657374255287 units=ft geometry=#1/0-25kv-jac:#1/0-25kv-jac:1 enabled=true phases=1 
new line.angle_fire_oh4700105 bus1=node_oh4700098.3 bus2=node_oh4700105.3 switch=n length=902.109287226224 units=ft geometry=#4-acsr-6/1:#4-acsr-6/1:1 enabled=true phases=1 
new line.angle_fire_oh4700099 bus1=node_4700013.3 bus2=node_oh4700099.3 switch=n length=304.900536240898 units=ft geometry=#4-acsr-6/1:#4-acsr-6/1:1 enabled=true phases=1 
new line.angle_fire_oh4700122 bus1=node_oh4700121.3 bus2=node_oh4700122.3 switch=n length=372.488839161533 units=ft geometry=#4-acsr-6/1:#4-acsr-6/1:1 enabled=true phases=1 
new line.angle_fire_ug4700017 bus1=node_4700008.3 bus2=node_ug4700017.3 switch=n length=37.2000508548997 units=ft geometry=#1/0-25kv-jac:#1/0-25kv-jac:1 enabled=true phases=1 
new line.angle_fire_ug4700020 bus1=node_4700009.3 bus2=node_ug4700020.3 switch=n length=580.051002333627 units=ft geometry=#1/0-25kv-jac:#1/0-25kv-jac:1 enabled=true phases=1 
new line.angle_fire_oh4700117 bus1=node_oh4700115.3 bus2=node_oh4700117.3 switch=n length=298.779545819243 units=ft geometry=#4-acsr-6/1:#4-acsr-6/1:1 enabled=true phases=1 
new line.angle_fire_ug4700016 bus1=node_4700007.3 bus2=node_ug4700016.3 switch=n length=158.659421718441 units=ft geometry=#1/0-25kv-jac:#1/0-25kv-jac:1 enabled=true phases=1 
new line.angle_fire_oh4700128 bus1=node_oh4700127.3 bus2=node_oh4700128.3 switch=n length=307.92264515626 units=ft geometry=#4-acsr-6/1:#4-acsr-6/1:1 enabled=true phases=1 
new line.angle_fire_oh4700129 bus1=node_oh4700127.3 bus2=node_oh4700129.3 switch=n length=420.845827590178 units=ft geometry=#4-acsr-6/1:#4-acsr-6/1:1 enabled=true phases=1 
new line.angle_fire_ug4700021 bus1=node_4700010.3 bus2=node_ug4700021.3 switch=n length=258.751094683532 units=ft geometry=#1/0-25kv-jac:#1/0-25kv-jac:1 enabled=true phases=1 
new line.angle_fire_oh4700136 bus1=node_oh4700135.3 bus2=node_oh4700136.3 switch=n length=264.20900230668 units=ft geometry=#4-acsr-6/1:#4-acsr-6/1:1 enabled=true phases=1 
new line.angle_fire_ug4700022 bus1=node_4700011.3 bus2=node_ug4700022.3 switch=n length=343.662421716568 units=ft geometry=#1/0-25kv-jac:#1/0-25kv-jac:1 enabled=true phases=1 
new line.angle_fire_ug4500260 bus1=node_ug4500258.1.2.3 bus2=node_ug4500260.1.2.3 switch=n length=239.295608327489 units=ft geometry=#1/0-25kv-jac:#1/0-25kv-jac:3 enabled=true phases=3 
new line.angle_fire_ug4500259 bus1=node_ug4500258.1.2.3 bus2=node_ug4500259.1.2.3 switch=n length=91.0514759749318 units=ft geometry=#1/0-25kv-jac:#1/0-25kv-jac:3 enabled=true phases=3 
new line.angle_fire_ug21002103 bus1=node_ocd21002101.1 bus2=node_ug21002103.1 switch=n length=262.602730547087 units=ft geometry=#1/0-25kv-jac:#1/0-25kv-jac:1 enabled=true phases=1 
new line.angle_fire_ug4500319 bus1=node_af_eagle_nest.1.2.3 bus2=node_ug4500319.1.2.3 switch=n length=926.426861352228 units=ft geometry=none:none:3 enabled=true phases=3 
new line.angle_fire_oh4500005 bus1=node_ug4500319.1.2.3 bus2=node_oh4500005.1.2.3 switch=n length=302.652730699819 units=ft geometry=#2-acsr-7/1:#2-acsr-7/1:3 enabled=true phases=3 
new line.angle_fire_oh4500002 bus1=node_ug4500319.1.2.3 bus2=node_oh4500002.1.2.3 switch=n length=399.045005105834 units=ft geometry=#2-acsr-6/1:#2-acsr-6/1:3 enabled=true phases=3 
new line.angle_fire_oh4500027 bus1=node_oh4500026.1.2.3 bus2=node_oh4500027.1.2.3 switch=n length=225.225800476006 units=ft geometry=#2-acsr-7/1:#2-acsr-7/1:3 enabled=true phases=3 
new line.angle_fire_oh4500060 bus1=node_oh4500032.1.2.3 bus2=node_oh4500060.1.2.3 switch=n length=455.266263410874 units=ft geometry=#2-acsr-7/1:#2-acsr-7/1:3 enabled=true phases=3 
new line.angle_fire_oh4306765 bus1=node_oh4306759.3 bus2=node_oh4306765.3 switch=n length=127.78579302874 units=ft geometry=#2-acsr-7/1:#2-acsr-7/1:1 enabled=true phases=1 
new line.angle_fire_ug4306763 bus1=node_ocd4306761.3 bus2=node_ug4306763.3 switch=n length=440.247154448445 units=ft geometry=#1/0-25kv-jac:#1/0-25kv-jac:1 enabled=true phases=1 
new line.angle_fire_oh4306790 bus1=node_oh4306787.3 bus2=node_oh4306790.3 switch=n length=188.913216318971 units=ft geometry=#2-acsr-7/1:#2-acsr-7/1:1 enabled=true phases=1 
new line.angle_fire_ug4306795 bus1=node_ocd4306789.3 bus2=node_ug4306795.3 switch=n length=474.175139909446 units=ft geometry=#1/0-25kv-jac:#1/0-25kv-jac:1 enabled=true phases=1 
new line.angle_fire_ug21003137 bus1=node_ug4306805.3 bus2=node_ug21003137.3 switch=n length=101.055776785584 units=ft geometry=#1/0-25kv-jac:#1/0-25kv-jac:1 enabled=true phases=1 
new line.angle_fire_ug4306806 bus1=node_ug4306805.3 bus2=node_ug4306806.3 switch=n length=399.845590090277 units=ft geometry=#1/0-25kv-jac:#1/0-25kv-jac:1 enabled=true phases=1 
new line.angle_fire_ug21003142 bus1=node_ug21003140.3 bus2=node_ug21003142.3 switch=n length=164.351859620261 units=ft geometry=#1/0-25kv-jac:#1/0-25kv-jac:1 enabled=true phases=1 
new line.angle_fire_ug21003133 bus1=node_ug4306804.3 bus2=node_ug21003133.3 switch=n length=643.695865955344 units=ft geometry=#1/0-25kv-jac:#1/0-25kv-jac:1 enabled=true phases=1 
new line.angle_fire_ug21003134 bus1=node_ug4306804.3 bus2=node_ug21003134.3 switch=n length=440.818629574003 units=ft geometry=#1/0-25kv-jac:#1/0-25kv-jac:1 enabled=true phases=1 
new line.angle_fire_ug21003129 bus1=node_ug4306795.3 bus2=node_ug21003129.3 switch=n length=391.10343383162 units=ft geometry=#1/0-25kv-jac:#1/0-25kv-jac:1 enabled=true phases=1 
new line.angle_fire_ug4306797 bus1=node_ug4306795.3 bus2=node_ug4306797.3 switch=n length=67.8933805908461 units=ft geometry=#1/0-25kv-jac:#1/0-25kv-jac:1 enabled=true phases=1 
new line.angle_fire_ug4500361 bus1=node_4500025.1.2.3 bus2=node_ug4500361.1.2.3 switch=n length=316.61645041196 units=ft geometry=#1/0-25kv-jac:#1/0-25kv-jac:3 enabled=true phases=3 
new line.angle_fire_ug4500365 bus1=node_ocd21004922.1.2.3 bus2=node_ug4500365.1.2.3 switch=n length=167.993054285208 units=ft geometry=#1/0-25kv-jac:#1/0-25kv-jac:3 enabled=true phases=3 
new line.angle_fire_ug4500363 bus1=node_ocd21004922.1.2.3 bus2=node_ug4500363.1.2.3 switch=n length=17.1527709860983 units=ft geometry=#1/0-25kv-jac:#1/0-25kv-jac:3 enabled=true phases=3 
new line.angle_fire_ug4500373 bus1=node_4500001.1.2.3 bus2=node_ug4500373.1.2.3 switch=n length=1063.19447634228 units=ft geometry=none:none:3 enabled=true phases=3 
new line.angle_fire_oh4500071 bus1=node_oh4500019.1.2.3 bus2=node_oh4500071.1.2.3 switch=n length=227.894288870991 units=ft geometry=#4-acsr-6/1:#4-acsr-6/1:3 enabled=true phases=3 
new line.angle_fire_oh4500021 bus1=node_oh4500019.1.2.3 bus2=node_oh4500021.1.2.3 switch=n length=469.485714053118 units=ft geometry=#2-acsr-6/1:#2-acsr-6/1:3 enabled=true phases=3 
new line.angle_fire_oh4400006 bus1=node_oh4400005.1.2.3 bus2=node_oh4400006.1.2.3 switch=n length=45.246562300521 units=ft geometry=#2-acsr-6/1:#2-acsr-6/1:3 enabled=true phases=3 
new line.angle_fire_ug4500320 bus1=node_4400002.1.2.3 bus2=node_ug4500320.1.2.3 switch=n length=1458.99264719495 units=ft geometry=#1/0-25kv-jac:#1/0-25kv-jac:3 enabled=true phases=3 
new line.angle_fire_oh4400203 bus1=node_oh4400202.3 bus2=node_oh4400203.3 switch=n length=406.380868275074 units=ft geometry=#4-acsr-6/1:#4-acsr-6/1:1 enabled=true phases=1 
new line.angle_fire_ug4400038 bus1=node_4400024.3 bus2=node_ug4400038.3 switch=n length=271.139214611158 units=ft geometry=#1/0-25kv-jac:#1/0-25kv-jac:1 enabled=true phases=1 
new line.angle_fire_oh4400205 bus1=node_oh4400204.3 bus2=node_oh4400205.3 switch=n length=371.224760084638 units=ft geometry=#4-acsr-6/1:#4-acsr-6/1:1 enabled=true phases=1 
new line.angle_fire_ug4400039 bus1=node_4400025.3 bus2=node_ug4400039.3 switch=n length=257.398178120997 units=ft geometry=#1/0-25kv-jac:#1/0-25kv-jac:1 enabled=true phases=1 
new line.angle_fire_oh4400208 bus1=node_t4400098.3 bus2=node_oh4400208.3 switch=n length=80.0731032993281 units=ft geometry=trip-#1/0:trip-#1/0:1 enabled=true phases=1 
new line.angle_fire_ug4400042 bus1=node_4400026.3 bus2=node_ug4400042.3 switch=n length=371.168944013402 units=ft geometry=#1/0-25kv-jac:#1/0-25kv-jac:1 enabled=true phases=1 
new line.angle_fire_oh4400199 bus1=node_ug4400037.3 bus2=node_oh4400199.3 switch=n length=42.2245734141436 units=ft geometry=#4-acsr-6/1:#4-acsr-6/1:1 enabled=true phases=1 
new line.angle_fire_ug4500322 bus1=node_4500011.3 bus2=node_ug4500322.3 switch=n length=603.879126358057 units=ft geometry=#1/0-25kv-jac:#1/0-25kv-jac:1 enabled=true phases=1 
new line.angle_fire_oh4500038 bus1=node_ug4500321.3 bus2=node_oh4500038.3 switch=n length=139.807369056058 units=ft geometry=#4-acsr-6/1:#4-acsr-6/1:1 enabled=true phases=1 
new line.angle_fire_ug4400027 bus1=node_4400003.3 bus2=node_ug4400027.3 switch=n length=1085.90364581769 units=ft geometry=#1/0-25kv-jac:#1/0-25kv-jac:1 enabled=true phases=1 
new line.angle_fire_ug4307132 bus1=node_ocd4302993.3 bus2=node_ug4307132.3 switch=n length=249.43900917853 units=ft geometry=#1/0-25kv-jac:#1/0-25kv-jac:1 enabled=true phases=1 
new line.angle_fire_oh4400021 bus1=node_07995a2-55247-75634.1.2.3 bus2=node_oh4400021.1.2.3 switch=n length=348.557554233266 units=ft geometry=#2-acsr-6/1:#2-acsr-6/1:3 enabled=true phases=3 
new line.angle_fire_oh4400214 bus1=node_oh4400213.1.2.3 bus2=node_oh4400214.1.2.3 switch=n length=191.543363497702 units=ft geometry=#4-acsr-6/1:#4-acsr-6/1:3 enabled=true phases=3 
new line.angle_fire_ug4400044 bus1=node_4400029.2 bus2=node_ug4400044.2 switch=n length=356.957347171891 units=ft geometry=#1/0-25kv-jac:#1/0-25kv-jac:1 enabled=true phases=1 
new line.angle_fire_oh4400025 bus1=node_oh4400022.1.2.3 bus2=node_oh4400025.1.2.3 switch=n length=287.850519427376 units=ft geometry=#2-acsr-6/1:#2-acsr-6/1:3 enabled=true phases=3 
new line.angle_fire_ug4400001 bus1=node_4400006.1.2.3 bus2=node_ug4400001.1.2.3 switch=n length=160.405273214754 units=ft geometry=#1/0-25kv-jac:#1/0-25kv-jac:3 enabled=true phases=3 
new line.angle_fire_oh4400246 bus1=node_oh4400241.2 bus2=node_oh4400246.2 switch=n length=319.276799188298 units=ft geometry=#4-acsr-6/1:#4-acsr-6/1:1 enabled=true phases=1 
new line.angle_fire_oh4400242 bus1=node_oh4400241.2 bus2=node_oh4400242.2 switch=n length=97.1046018477189 units=ft geometry=#4-acsr-6/1:#4-acsr-6/1:1 enabled=true phases=1 
new line.angle_fire_ug4400045 bus1=node_4400030.2 bus2=node_ug4400045.2 switch=n length=252.469029585836 units=ft geometry=#1/0-25kv-jac:#1/0-25kv-jac:1 enabled=true phases=1 
new line.angle_fire_oh4400037 bus1=node_oh4400036.1.2.3 bus2=node_oh4400037.1.2.3 switch=n length=246.535929799861 units=ft geometry=#2-acsr-6/1:#2-acsr-6/1:3 enabled=true phases=3 
new line.angle_fire_ug21003338 bus1=node_4400007.1 bus2=node_ug21003338.1 switch=n length=265.345945866483 units=ft geometry=#1/0-25kv-jac:#1/0-25kv-jac:1 enabled=true phases=1 
...

new line.angle_fire_oh4500010 bus1=node_oh4500009.3 bus2=node_oh4500010.3 switch=n length=34.0956096879214 units=ft geometry=#2-acsr-7/1:#2-acsr-7/1:1 enabled=true phases=1 

new line.angle_fire_oh4500067 bus1=node_oh4500010.3 bus2=node_oh4500067.3 switch=n length=217.536331908178 units=ft geometry=#2-acsr-7/1:#2-acsr-7/1:1 enabled=true phases=1 
new line.angle_fire_oh4500068 bus1=node_t4500293.3 bus2=node_oh4500068.3 switch=n length=35.6925006130032 units=ft geometry=trip-#1/0:trip-#1/0:1 enabled=true phases=1 
new line.angle_fire_oh_4_26_62_1_0001 bus1=node_oh4500002.1.2.3 bus2=node_oh_4_26_62_1_0001.1.2.3 switch=n length=184.593428496888 units=ft geometry=#4-acsr-6/1:#4-acsr-6/1:3 enabled=true phases=3 
new line.angle_fire_oh4500015 bus1=node_oh4500002.1.2.3 bus2=node_oh4500015.1.2.3 switch=n length=401.575868921502 units=ft geometry=#2-acsr-6/1:#2-acsr-6/1:3 enabled=true phases=3 
new line.angle_fire_oh4500069 bus1=node_oh4500016.1 bus2=node_oh4500069.1 switch=n length=377.112148438498 units=ft geometry=#4-acsr-6/1:#4-acsr-6/1:1 enabled=true phases=1 
new line.angle_fire_oh4500018 bus1=node_oh4500016.1.2.3 bus2=node_oh4500018.1.2.3 switch=n length=233.394481725827 units=ft geometry=#2-acsr-6/1:#2-acsr-6/1:3 enabled=true phases=3 
new line.angle_fire_oh4500070 bus1=node_t4500294.1 bus2=node_oh4500070.1 switch=n length=183.014684110433 units=ft geometry=trip-#1/0:trip-#1/0:1 enabled=true phases=1 
new line.angle_fire_oh4500017 bus1=node_t4500253.3 bus2=node_oh4500017.3 switch=n length=25.25429468422 units=ft geometry=trip-#1/0:trip-#1/0:1 enabled=true phases=1 
new line.angle_fire_oh4500073 bus1=node_oh4500071.1.2.3 bus2=node_oh4500073.1.2.3 switch=n length=186.675727399073 units=ft geometry=#4-acsr-6/1:#4-acsr-6/1:3 enabled=true phases=3 
new line.angle_fire_oh4500072 bus1=node_t4500295.3 bus2=node_oh4500072.3 switch=n length=133.508612830817 units=ft geometry=trip-#1/0:trip-#1/0:1 enabled=true phases=1 
new line.angle_fire_oh4500075 bus1=node_oh4500073.2 bus2=node_oh4500075.2 switch=n length=74.2223450182291 units=ft geometry=#4-acsr-6/1:#4-acsr-6/1:1 enabled=true phases=1 
new line.angle_fire_oh4500074 bus1=node_oh4500073.1.2.3 bus2=node_oh4500074.1.2.3 switch=n length=88.3480401594728 units=ft geometry=#4-acsr-6/1:#4-acsr-6/1:3 enabled=true phases=3 
new line.angle_fire_oh4500080 bus1=node_oh4500075.2 bus2=node_oh4500080.2 switch=n length=324.812861968174 units=ft geometry=#4-acsr-6/1:#4-acsr-6/1:1 enabled=true phases=1 
new line.angle_fire_oh4500081 bus1=node_oh4500080.2 bus2=node_oh4500081.2 switch=n length=332.831056393478 units=ft geometry=#4-acsr-6/1:#4-acsr-6/1:1 enabled=true phases=1 
new line.angle_fire_oh4500082 bus1=node_oh4500080.2 bus2=node_oh4500082.2 switch=n length=27.2665546045465 units=ft geometry=#4-acsr-6/1:#4-acsr-6/1:1 enabled=true phases=1 
new line.angle_fire_oh4500087 bus1=node_oh4500081.2 bus2=node_oh4500087.2 switch=n length=332.983651550674 units=ft geometry=#4-acsr-6/1:#4-acsr-6/1:1 enabled=true phases=1 
new line.angle_fire_oh4500085 bus1=node_t4500299.2 bus2=node_oh4500085.2 switch=n length=119.802252482843 units=ft geometry=trip-#1/0:trip-#1/0:1 enabled=true phases=1 
new line.angle_fire_oh4500086 bus1=node_oh4500085.2 bus2=node_oh4500086.2 switch=n length=22.4220732072882 units=ft geometry=trip-#1/0:trip-#1/0:1 enabled=true phases=1 
new line.angle_fire_oh4500088 bus1=node_t4500300.2 bus2=node_oh4500088.2 switch=n length=116.555470914242 units=ft geometry=trip-#1/0:trip-#1/0:1 enabled=true phases=1 
new line.angle_fire_oh4500089 bus1=node_oh4500088.2 bus2=node_oh4500089.2 switch=n length=21.0464296260239 units=ft geometry=trip-#1/0:trip-#1/0:1 enabled=true phases=1 
new line.angle_fire_oh4500084 bus1=node_oh4500082.2 bus2=node_oh4500084.2 switch=n length=179.495543120244 units=ft geometry=#4-acsr-6/1:#4-acsr-6/1:1 enabled=true phases=1 
new line.angle_fire_oh4500083 bus1=node_t4500297.2 bus2=node_oh4500083.2 switch=n length=11.0853100994174 units=ft geometry=trip-#1/0:trip-#1/0:1 enabled=true phases=1 
new line.angle_fire_oh4500077 bus1=node_t4500296.2 bus2=node_oh4500077.2 switch=n length=96.6816388978629 units=ft geometry=trip-#1/0:trip-#1/0:1 enabled=true phases=1 
new line.angle_fire_oh4500076 bus1=node_t4500296.2 bus2=node_oh4500076.2 switch=n length=75.8638148263376 units=ft geometry=trip-#1/0:trip-#1/0:1 enabled=true phases=1 
new line.angle_fire_oh4500079 bus1=node_oh4500077.2 bus2=node_oh4500079.2 switch=n length=56.9453720683101 units=ft geometry=trip-#1/0:trip-#1/0:1 enabled=true phases=1 
new line.angle_fire_oh4500078 bus1=node_oh4500077.2 bus2=node_oh4500078.2 switch=n length=50.2301951022308 units=ft geometry=trip-#1/0:trip-#1/0:1 enabled=true phases=1 
new line.angle_fire_oh4500020 bus1=node_t4500254.3 bus2=node_oh4500020.3 switch=n length=27.0959867876153 units=ft geometry=trip-#1/0:trip-#1/0:1 enabled=true phases=1 
new line.angle_fire_oh4500022 bus1=node_oh4500021.1.2.3 bus2=node_oh4500022.1.2.3 switch=n length=398.821624789872 units=ft geometry=#2-acsr-6/1:#2-acsr-6/1:3 enabled=true phases=3 
new line.angle_fire_oh4500090 bus1=node_oh4500022.2 bus2=node_oh4500090.2 switch=n length=49.0330837292982 units=ft geometry=#4-acsr-6/1:#4-acsr-6/1:1 enabled=true phases=1 
new line.angle_fire_oh4500025 bus1=node_oh4500022.1.2.3 bus2=node_oh4500025.1.2.3 switch=n length=435.395593110399 units=ft geometry=#2-acsr-6/1:#2-acsr-6/1:3 enabled=true phases=3 
new line.angle_fire_oh4500091 bus1=node_oh4500090.2 bus2=node_oh4500091.2 switch=n length=411.363141275346 units=ft geometry=#4-acsr-6/1:#4-acsr-6/1:1 enabled=true phases=1 
new line.angle_fire_oh4500024 bus1=node_t4500255.1 bus2=node_oh4500024.1 switch=n length=123.901008874137 units=ft geometry=trip-#1/0:trip-#1/0:1 enabled=true phases=1 
new line.angle_fire_oh4400002 bus1=node_oh4500025.1.2.3 bus2=node_oh4400002.1.2.3 switch=n length=94.7585658396028 units=ft geometry=#2-acsr-6/1:#2-acsr-6/1:3 enabled=true phases=3 
new line.angle_fire_oh4400004 bus1=node_oh4400002.1.2.3 bus2=node_oh4400004.1.2.3 switch=n length=266.378069855761 units=ft geometry=#2-acsr-6/1:#2-acsr-6/1:3 enabled=true phases=3 
new line.angle_fire_oh4400003 bus1=node_oh4400002.1.2.3 bus2=node_oh4400003.1.2.3 switch=n length=135.495426122122 units=ft geometry=#4-acsr-6/1:#4-acsr-6/1:3 enabled=true phases=3 
new line.angle_fire_oh4400005 bus1=node_oh4400004.1.2.3 bus2=node_oh4400005.1.2.3 switch=n length=399.637926378216 units=ft geometry=#2-acsr-6/1:#2-acsr-6/1:3 enabled=true phases=3 
new line.angle_fire_oh4400200 bus1=node_oh4400199.3 bus2=node_oh4400200.3 switch=n length=441.653205241452 units=ft geometry=#4-acsr-6/1:#4-acsr-6/1:1 enabled=true phases=1 
new line.angle_fire_oh4400201 bus1=node_oh4400200.3 bus2=node_oh4400201.3 switch=n length=407.702112454584 units=ft geometry=#4-acsr-6/1:#4-acsr-6/1:1 enabled=true phases=1 
new line.angle_fire_oh4400202 bus1=node_oh4400201.3 bus2=node_oh4400202.3 switch=n length=401.874982177316 units=ft geometry=#4-acsr-6/1:#4-acsr-6/1:1 enabled=true phases=1 
new line.angle_fire_oh4400204 bus1=node_oh4400203.3 bus2=node_oh4400204.3 switch=n length=199.974429615393 units=ft geometry=#4-acsr-6/1:#4-acsr-6/1:1 enabled=true phases=1 
new line.angle_fire_oh4400206 bus1=node_oh4400205.3 bus2=node_oh4400206.3 switch=n length=381.772729513306 units=ft geometry=#4-acsr-6/1:#4-acsr-6/1:1 enabled=true phases=1 
new line.angle_fire_oh4400207 bus1=node_oh4400206.3 bus2=node_oh4400207.3 switch=n length=210.077633269193 units=ft geometry=#4-acsr-6/1:#4-acsr-6/1:1 enabled=true phases=1 
new line.angle_fire_oh4500039 bus1=node_oh4500038.3 bus2=node_oh4500039.3 switch=n length=376.677917855529 units=ft geometry=#4-acsr-6/1:#4-acsr-6/1:1 enabled=true phases=1 
new line.angle_fire_oh4500040 bus1=node_oh4500039.3 bus2=node_oh4500040.3 switch=n length=399.140952045603 units=ft geometry=#4-acsr-6/1:#4-acsr-6/1:1 enabled=true phases=1 
new line.angle_fire_oh4500041 bus1=node_oh4500040.3 bus2=node_oh4500041.3 switch=n length=399.644403939475 units=ft geometry=#4-acsr-6/1:#4-acsr-6/1:1 enabled=true phases=1 
new line.angle_fire_oh4500042 bus1=node_oh4500041.3 bus2=node_oh4500042.3 switch=n length=398.330190796515 units=ft geometry=#4-acsr-6/1:#4-acsr-6/1:1 enabled=true phases=1 
new line.angle_fire_oh4500043 bus1=node_oh4500042.3 bus2=node_oh4500043.3 switch=n length=292.435484337822 units=ft geometry=#4-acsr-6/1:#4-acsr-6/1:1 enabled=true phases=1 
new line.angle_fire_oh4500044 bus1=node_oh4500043.3 bus2=node_oh4500044.3 switch=n length=493.6185232548 units=ft geometry=#4-acsr-6/1:#4-acsr-6/1:1 enabled=true phases=1 
new line.angle_fire_oh4500045 bus1=node_oh4500044.3 bus2=node_oh4500045.3 switch=n length=320.04672549474 units=ft geometry=#4-acsr-6/1:#4-acsr-6/1:1 enabled=true phases=1 
new line.angle_fire_oh4500046 bus1=node_oh4500045.3 bus2=node_oh4500046.3 switch=n length=400.716206934475 units=ft geometry=#4-acsr-6/1:#4-acsr-6/1:1 enabled=true phases=1 
new line.angle_fire_oh4500047 bus1=node_oh4500046.3 bus2=node_oh4500047.3 switch=n length=397.39035833801 units=ft geometry=#4-acsr-6/1:#4-acsr-6/1:1 enabled=true phases=1 
new line.angle_fire_oh4500048 bus1=node_oh4500047.3 bus2=node_oh4500048.3 switch=n length=500.498658639618 units=ft geometry=#4-acsr-6/1:#4-acsr-6/1:1 enabled=true phases=1 
new line.angle_fire_oh4500049 bus1=node_oh4500047.3 bus2=node_oh4500049.3 switch=n length=348.051514146943 units=ft geometry=#4-acsr-6/1:#4-acsr-6/1:1 enabled=true phases=1 
new line.angle_fire_oh4500050 bus1=node_oh4500048.3 bus2=node_oh4500050.3 switch=n length=303.49117697223 units=ft geometry=#4-acsr-6/1:#4-acsr-6/1:1 enabled=true phases=1 
new line.angle_fire_oh4500051 bus1=node_oh4500050.3 bus2=node_oh4500051.3 switch=n length=222.392629857957 units=ft geometry=#4-acsr-6/1:#4-acsr-6/1:1 enabled=true phases=1 
new line.angle_fire_oh4400007 bus1=node_oh4400006.3 bus2=node_oh4400007.3 switch=n length=121.162331192527 units=ft geometry=#4-acsr-6/1:#4-acsr-6/1:1 enabled=true phases=1 
new line.angle_fire_oh4400008 bus1=node_oh4400006.1.2.3 bus2=node_oh4400008.1.2.3 switch=n length=478.4499566307 units=ft geometry=#2-acsr-6/1:#2-acsr-6/1:3 enabled=true phases=3 
new line.angle_fire_oh4400183 bus1=node_ug4400027.3 bus2=node_oh4400183.3 switch=n length=221.156330454178 units=ft geometry=#4-acsr-6/1:#4-acsr-6/1:1 enabled=true phases=1 
new line.angle_fire_oh4400184 bus1=node_oh4400183.3 bus2=node_oh4400184.3 switch=n length=177.943007730089 units=ft geometry=#4-acsr-6/1:#4-acsr-6/1:1 enabled=true phases=1 
new line.angle_fire_oh4400185 bus1=node_oh4400184.3 bus2=node_oh4400185.3 switch=n length=573.696670026902 units=ft geometry=#4-acsr-6/1:#4-acsr-6/1:1 enabled=true phases=1 
new line.angle_fire_oh4400186 bus1=node_oh4400185.3 bus2=node_oh4400186.3 switch=n length=677.077514395558 units=ft geometry=#4-acsr-6/1:#4-acsr-6/1:1 enabled=true phases=1 
new line.angle_fire_oh4400187 bus1=node_oh4400186.3 bus2=node_oh4400187.3 switch=n length=396.934296956088 units=ft geometry=#4-acsr-6/1:#4-acsr-6/1:1 enabled=true phases=1 
new line.angle_fire_oh4400188 bus1=node_oh4400187.3 bus2=node_oh4400188.3 switch=n length=524.925893817314 units=ft geometry=#4-acsr-6/1:#4-acsr-6/1:1 enabled=true phases=1 
new line.angle_fire_ug4400070 bus1=node_oh4400187.3 bus2=node_ug4400070.3 switch=n length=814.616898004154 units=ft geometry=#1/0-25kv-jac:#1/0-25kv-jac:1 enabled=true phases=1 
new line.angle_fire_oh4307125 bus1=node_oh4400188.3 bus2=node_oh4307125.3 switch=n length=582.119308217838 units=ft geometry=#4-acsr-6/1:#4-acsr-6/1:1 enabled=true phases=1 
new line.angle_fire_oh4307126 bus1=node_oh4307125.3 bus2=node_oh4307126.3 switch=n length=400.804991984836 units=ft geometry=#4-acsr-6/1:#4-acsr-6/1:1 enabled=true phases=1 
new line.angle_fire_oh4307127 bus1=node_oh4307126.3 bus2=node_oh4307127.3 switch=n length=643.780298316223 units=ft geometry=#4-acsr-6/1:#4-acsr-6/1:1 enabled=true phases=1 
new line.angle_fire_oh4307128 bus1=node_oh4307127.3 bus2=node_oh4307128.3 switch=n length=988.746727124833 units=ft geometry=#4-acsr-6/1:#4-acsr-6/1:1 enabled=true phases=1 
new line.angle_fire_oh4307129 bus1=node_oh4307128.3 bus2=node_oh4307129.3 switch=n length=319.851480690596 units=ft geometry=#4-acsr-6/1:#4-acsr-6/1:1 enabled=true phases=1 
new line.angle_fire_oh4307141 bus1=node_oh4307128.3 bus2=node_oh4307141.3 switch=n length=510.645603623387 units=ft geometry=#4-acsr-6/1:#4-acsr-6/1:1 enabled=true phases=1 
new line.angle_fire_oh4307130 bus1=node_oh4307129.3 bus2=node_oh4307130.3 switch=n length=332.763765605725 units=ft geometry=#4-acsr-6/1:#4-acsr-6/1:1 enabled=true phases=1 
new line.angle_fire_oh4307131 bus1=node_oh4307130.3 bus2=node_oh4307131.3 switch=n length=483.952844810197 units=ft geometry=#4-acsr-6/1:#4-acsr-6/1:1 enabled=true phases=1 
new line.angle_fire_oh4307142 bus1=node_oh4307141.3 bus2=node_oh4307142.3 switch=n length=496.029178375719 units=ft geometry=#4-acsr-6/1:#4-acsr-6/1:1 enabled=true phases=1 
new line.angle_fire_oh4307143 bus1=node_oh4307142.3 bus2=node_oh4307143.3 switch=n length=319.690885231318 units=ft geometry=#4-acsr-6/1:#4-acsr-6/1:1 enabled=true phases=1 
new line.angle_fire_oh4400011 bus1=node_oh4400009.1.2.3 bus2=node_oh4400011.1.2.3 switch=n length=456.137839035541 units=ft geometry=#2-acsr-6/1:#2-acsr-6/1:3 enabled=true phases=3 
new line.angle_fire_oh4400012 bus1=node_oh4400011.1.2.3 bus2=node_oh4400012.1.2.3 switch=n length=400.853739161901 units=ft geometry=#2-acsr-6/1:#2-acsr-6/1:3 enabled=true phases=3 
new line.angle_fire_oh4400013 bus1=node_oh4400012.1.2.3 bus2=node_oh4400013.1.2.3 switch=n length=464.650161411812 units=ft geometry=#2-acsr-6/1:#2-acsr-6/1:3 enabled=true phases=3 
new line.angle_fire_oh4400014 bus1=node_oh4400013.1.2.3 bus2=node_oh4400014.1.2.3 switch=n length=281.868074815178 units=ft geometry=#2-acsr-6/1:#2-acsr-6/1:3 enabled=true phases=3 
new line.angle_fire_oh4400015 bus1=node_oh4400014.1.2.3 bus2=node_oh4400015.1.2.3 switch=n length=116.881069468023 units=ft geometry=#2-acsr-6/1:#2-acsr-6/1:3 enabled=true phases=3 
new line.angle_fire_oh4400016 bus1=node_oh4400015.1.2.3 bus2=node_oh4400016.1.2.3 switch=n length=400.620072512628 units=ft geometry=#2-acsr-6/1:#2-acsr-6/1:3 enabled=true phases=3 
new line.angle_fire_oh4400017 bus1=node_oh4400016.1.2.3 bus2=node_oh4400017.1.2.3 switch=n length=138.812668009718 units=ft geometry=#2-acsr-6/1:#2-acsr-6/1:3 enabled=true phases=3 
new line.angle_fire_oh4400019 bus1=node_oh4400017.1.2.3 bus2=node_oh4400019.1.2.3 switch=n length=250.225149861605 units=ft geometry=#2-acsr-6/1:#2-acsr-6/1:3 enabled=true phases=3 
new line.angle_fire_oh4400018 bus1=node_oh4400017.1.2.3 bus2=node_oh4400018.1.2.3 switch=n length=159.495429715213 units=ft geometry=#4-acsr-6/1:#4-acsr-6/1:3 enabled=true phases=3 
new line.angle_fire_oh4400020 bus1=node_oh4400019.1.2.3 bus2=node_oh4400020.1.2.3 switch=n length=397.485334455046 units=ft geometry=#2-acsr-6/1:#2-acsr-6/1:3 enabled=true phases=3 
new line.angle_fire_oh4400212 bus1=node_oh4400021.1.2.3 bus2=node_oh4400212.1.2.3 switch=n length=29.1037609251683 units=ft geometry=#4-acsr-6/1:#4-acsr-6/1:3 enabled=true phases=3 
new line.angle_fire_oh4400022 bus1=node_oh4400021.1.2.3 bus2=node_oh4400022.1.2.3 switch=n length=332.181565563231 units=ft geometry=#2-acsr-6/1:#2-acsr-6/1:3 enabled=true phases=3 
new line.angle_fire_oh4400213 bus1=node_oh4400212.1.2.3 bus2=node_oh4400213.1.2.3 switch=n length=319.147545815529 units=ft geometry=#4-acsr-6/1:#4-acsr-6/1:3 enabled=true phases=3 
new line.angle_fire_oh4400216 bus1=node_oh4400214.1.2.3 bus2=node_oh4400216.1.2.3 switch=n length=96.3547871149574 units=ft geometry=#4-acsr-6/1:#4-acsr-6/1:3 enabled=true phases=3 
new line.angle_fire_oh4400215 bus1=node_oh4400214.2 bus2=node_oh4400215.2 switch=n length=107.593480285718 units=ft geometry=#4-acsr-6/1:#4-acsr-6/1:1 enabled=true phases=1 
new line.angle_fire_oh4400217 bus1=node_oh4400216.1.2.3 bus2=node_oh4400217.1.2.3 switch=n length=196.208443498423 units=ft geometry=#4-acsr-6/1:#4-acsr-6/1:3 enabled=true phases=3 
new line.angle_fire_oh4400218 bus1=node_oh4400217.1.2.3 bus2=node_oh4400218.1.2.3 switch=n length=32.6620957686429 units=ft geometry=trip-#1/0:trip-#1/0:3 enabled=true phases=3 
new line.angle_fire_oh4400219 bus1=node_oh4400215.2 bus2=node_oh4400219.2 switch=n length=72.78395221476 units=ft geometry=#4-acsr-6/1:#4-acsr-6/1:1 enabled=true phases=1 
new line.angle_fire_oh4400223 bus1=node_oh4400215.2 bus2=node_oh4400223.2 switch=n length=311.272973770685 units=ft geometry=#4-acsr-6/1:#4-acsr-6/1:1 enabled=true phases=1 
new line.angle_fire_oh4400220 bus1=node_oh4400219.2 bus2=node_oh4400220.2 switch=n length=107.332604552288 units=ft geometry=#4-acsr-6/1:#4-acsr-6/1:1 enabled=true phases=1 
new line.angle_fire_oh4400222 bus1=node_oh4400220.2 bus2=node_oh4400222.2 switch=n length=244.711730000913 units=ft geometry=#4-acsr-6/1:#4-acsr-6/1:1 enabled=true phases=1 
new line.angle_fire_oh4400221 bus1=node_t4400106.2 bus2=node_oh4400221.2 switch=n length=123.799117929217 units=ft geometry=trip-#1/0:trip-#1/0:1 enabled=true phases=1 
new line.angle_fire_oh4400227 bus1=node_oh4400223.2 bus2=node_oh4400227.2 switch=n length=170.79193657767 units=ft geometry=#4-acsr-6/1:#4-acsr-6/1:1 enabled=true phases=1 
new line.angle_fire_oh4400224 bus1=node_oh4400223.2 bus2=node_oh4400224.2 switch=n length=27.9677528592692 units=ft geometry=#4-acsr-6/1:#4-acsr-6/1:1 enabled=true phases=1 
...