files/angel_fire/Switches.dss
new line.sw4500031 bus1=node_oh4500014.1.2.3 bus2=node_sw4500031.1.2.3 switch=y length=0.001 units=ft enabled=true phases=3 
new line.sw4302938 bus1=node_oh4307199.1.2.3 bus2=node_sw4302938.1.2.3 switch=y length=0.001 units=ft enabled=true phases=3 
new line.sw4306330 bus1=node_ug4306325.1.2.3 bus2=node_sw4306330.1.2.3 switch=y length=0.001 units=ft enabled=true phases=3 
new line.sw4306342 bus1=node_ug4306338.1.2.3 bus2=node_sw4306342.1.2.3 switch=y length=0.001 units=ft enabled=true phases=3 
new line.sw4303614 bus1=node_ug4303612.1.2.3 bus2=node_sw4303614.1.2.3 switch=y length=0.001 units=ft enabled=true phases=3 
new line.sw4302943 bus1=node_ug4303251.1.2.3 bus2=node_sw4302943.1.2.3 switch=y length=0.001 units=ft enabled=true phases=3 
new line.sw4302938-b bus1=node_ug4302937.1.2.3 bus2=node_sw4302938-b.1.2.3 switch=y length=0.001 units=ft enabled=true phases=3 
new line.sw4500001 bus1=node_ug4500002.1.2.3 bus2=node_sw4500001.1.2.3 switch=y length=0.001 units=ft enabled=true phases=3 
new line.sw4500015 bus1=node_ug4500372.3 bus2=node_sw4500015.3 switch=y length=0.001 units=ft enabled=true phases=1 
new line.sw4500024 bus1=node_ug_4_25_90_1_0001.1.2.3 bus2=node_sw4500024.1.2.3 switch=y length=0.001 units=ft enabled=true phases=3 
new line.sw_4_35_29_4_0001-a bus1=node_ug4500212.3 bus2=node_sw_4_35_29_4_0001-a.3 switch=y length=0.001 units=ft enabled=true phases=1 
new line.sw4500023 bus1=node_sw4500024.1.2.3 bus2=node_sw4500023.1.2.3 switch=y length=0.001 units=ft enabled=true phases=3 
new line.sw4500021 bus1=node_ug4500047.3 bus2=node_sw4500021.3 switch=y length=0.001 units=ft enabled=true phases=1 
new line.sw4500003 bus1=node_ug_4_26_72_4_0001.1.2.3 bus2=node_sw4500003.1.2.3 switch=y length=0.001 units=ft enabled=true phases=3 
new line.sw4500013 bus1=node_ug4500017.3 bus2=node_sw4500013.3 switch=y length=0.001 units=ft enabled=true phases=1 
new line.sw4306259 bus1=node_ug4306256.3 bus2=node_sw4306259.3 switch=y length=0.001 units=ft enabled=true phases=1 
new line.sw4306275 bus1=node_ug4306273.3 bus2=node_sw4306275.3 switch=y length=0.001 units=ft enabled=true phases=1 
new line.sw4305958 bus1=node_ug4305942.3 bus2=node_sw4305958.3 switch=y length=0.001 units=ft enabled=true phases=1 
new line.sw4306016 bus1=node_ug4306012.3 bus2=node_sw4306016.3 switch=y length=0.001 units=ft enabled=true phases=1 
new line.sw4302943-b bus1=node_ug4302947.3 bus2=node_sw4302943-b.3 switch=y length=0.001 units=ft enabled=true phases=1 
new line.sw4305595 bus1=node_ug4305594.3 bus2=node_sw4305595.3 switch=y length=0.001 units=ft enabled=true phases=1 
new line.sw4303351 bus1=node_ug4305816.3 bus2=node_sw4303351.3 switch=y length=0.001 units=ft enabled=true phases=1 
new line.sw_4_26_92_4_0002-a bus1=node_ug4500007.1.2.3 bus2=node_sw_4_26_92_4_0002-a.1.2.3 switch=y length=0.001 units=ft enabled=true phases=3 
new line.sw4500009 bus1=node_ug4500010.1.2.3 bus2=node_sw4500009.1.2.3 switch=y length=0.001 units=ft enabled=true phases=3 
new line.sw4600001 bus1=node_ug_4_36_42_2_0008.1.2.3 bus2=node_sw4600001.1.2.3 switch=y length=0.001 units=ft enabled=true phases=3 
new line.sw4600013 bus1=node_ug4600105.1.2.3 bus2=node_sw4600013.1.2.3 switch=y length=0.001 units=ft enabled=true phases=3 
new line.sw4600014 bus1=node_sw4600013.1.2.3 bus2=node_sw4600014.1.2.3 switch=y length=0.001 units=ft enabled=true phases=3 
new line.sw4600017 bus1=node_ug4600120.3 bus2=node_sw4600017.3 switch=y length=0.001 units=ft enabled=true phases=1 
new line.sw4600003 bus1=node_ug4600010.1.2.3 bus2=node_sw4600003.1.2.3 switch=y length=0.001 units=ft enabled=true phases=3 
new line.sw4600005 bus1=node_ug4600015.1.2.3 bus2=node_sw4600005.1.2.3 switch=y length=0.001 units=ft enabled=true phases=3 
new line.sw4600025 bus1=node_ug4600286.3 bus2=node_sw4600025.3 switch=y length=0.001 units=ft enabled=true phases=1 
new line.sw4600019 bus1=node_ug4600137.3 bus2=node_sw4600019.3 switch=y length=0.001 units=ft enabled=true phases=1 
new line.sw4600021 bus1=node_ug4600290.3 bus2=node_sw4600021.3 switch=y length=0.001 units=ft enabled=true phases=1 
new line.sw4600023 bus1=node_ug4600157.3 bus2=node_sw4600023.3 switch=y length=0.001 units=ft enabled=true phases=1 
new line.sw_4_26_92_4_0001-a bus1=node_ug_4_26_62_4_2.1.2.3 bus2=node_sw_4_26_92_4_0001-a.1.2.3 switch=y length=0.001 units=ft enabled=true phases=3 
new line.sw4500011 bus1=node_ug_4_36_42_2_0001.1.2.3 bus2=node_sw4500011.1.2.3 switch=y length=0.001 units=ft enabled=true phases=3 
new line.sw4303997 bus1=node_ug4306029.3 bus2=node_sw4303997.3 switch=y length=0.001 units=ft enabled=true phases=1 
new line.sw4306087 bus1=node_ug4306082.3 bus2=node_sw4306087.3 switch=y length=0.001 units=ft enabled=true phases=1 
new line.sw4500019 bus1=node_ug4500038.3 bus2=node_sw4500019.3 switch=y length=0.001 units=ft enabled=true phases=1 
new line.sw_4_35_10_3_0001-a bus1=node_ug4500042.1.2.3 bus2=node_sw_4_35_10_3_0001-a.1.2.3 switch=y length=0.001 units=ft enabled=true phases=3 
new line.sw_4_35_10_3_0002-a bus1=node_ug_4_35_10_3_0001.1.2.3 bus2=node_sw_4_35_10_3_0002-a.1.2.3 switch=y length=0.001 units=ft enabled=true phases=3 
new line.via_de_maria bus1=node_ug_4_35_17_1_0003.1.2.3 bus2=node_via_de_maria.1.2.3 switch=y length=0.001 units=ft enabled=true phases=3 
new line.sw_4_35_10_3_0001-b bus1=node_sw_4_35_10_3_0001-a.1.2.3 bus2=node_sw_4_35_10_3_0001-b.1.2.3 switch=y length=0.001 units=ft enabled=true phases=3 
new line.sw4303614-b bus1=node_sw4303614.1.2.3 bus2=node_sw4303614-b.1.2.3 switch=y length=0.001 units=ft enabled=true phases=3 
new line.sw4306342-b bus1=node_sw4306342.1.2.3 bus2=node_sw4306342-b.1.2.3 switch=y length=0.001 units=ft enabled=true phases=3 
new line.sw4306330-b bus1=node_sw4306330.1.2.3 bus2=node_sw4306330-b.1.2.3 switch=y length=0.001 units=ft enabled=true phases=3 
new line.sw4500016 bus1=node_sw4500015.3 bus2=node_sw4500016.3 switch=y length=0.001 units=ft enabled=true phases=1 
new line.sw4500022 bus1=node_sw4500021.3 bus2=node_sw4500022.3 switch=y length=0.001 units=ft enabled=true phases=1 
new line.sw4500002 bus1=node_sw4500001.1.2.3 bus2=node_sw4500002.1.2.3 switch=y length=0.001 units=ft enabled=true phases=3 
new line.sw4305958-b bus1=node_sw4305958.3 bus2=node_sw4305958-b.3 switch=y length=0.001 units=ft enabled=true phases=1 
new line.sw4305595-b bus1=node_sw4305595.3 bus2=node_sw4305595-b.3 switch=y length=0.001 units=ft enabled=true phases=1 
new line.sw4303351-b bus1=node_sw4303351.3 bus2=node_sw4303351-b.3 switch=y length=0.001 units=ft enabled=true phases=1 
new line.sw4306259-b bus1=node_sw4306259.3 bus2=node_sw4306259-b.3 switch=y length=0.001 units=ft enabled=true phases=1 
new line.sw4500014 bus1=node_sw4500013.3 bus2=node_sw4500014.3 switch=y length=0.001 units=ft enabled=true phases=1 
new line.sw_4_26_92_4_0002-b bus1=node_sw_4_26_92_4_0002-a.1.2.3 bus2=node_sw_4_26_92_4_0002-b.1.2.3 switch=y length=0.001 units=ft enabled=true phases=3 
new line.sw4600002 bus1=node_sw4600001.1.2.3 bus2=node_sw4600002.1.2.3 switch=y length=0.001 units=ft enabled=true phases=3 
new line.sw4600026 bus1=node_sw4600025.3 bus2=node_sw4600026.3 switch=y length=0.001 units=ft enabled=true phases=1 
new line.sw4600006 bus1=node_sw4600005.1.2.3 bus2=node_sw4600006.1.2.3 switch=y length=0.001 units=ft enabled=true phases=3 
new line.sw4600004 bus1=node_sw4600003.1.2.3 bus2=node_sw4600004.1.2.3 switch=y length=0.001 units=ft enabled=true phases=3 
new line.sw4600022 bus1=node_sw4600021.3 bus2=node_sw4600022.3 switch=y length=0.001 units=ft enabled=true phases=1 
new line.sw4600020 bus1=node_sw4600019.3 bus2=node_sw4600020.3 switch=y length=0.001 units=ft enabled=true phases=1 
new line.sw4500010 bus1=node_sw4500009.1.2.3 bus2=node_sw4500010.1.2.3 switch=y length=0.001 units=ft enabled=true phases=3 
new line.sw4500004 bus1=node_sw4500003.1.2.3 bus2=node_sw4500004.1.2.3 switch=y length=0.001 units=ft enabled=true phases=3 
new line.sw_4_26_92_4_0001-b bus1=node_sw_4_26_92_4_0001-a.1.2.3 bus2=node_sw_4_26_92_4_0001-b.1.2.3 switch=y length=0.001 units=ft enabled=true phases=3 
new line.sw4500012 bus1=node_sw4500011.1.2.3 bus2=node_sw4500012.1.2.3 switch=y length=0.001 units=ft enabled=true phases=3 
new line.sw4303997-b bus1=node_sw4303997.3 bus2=node_sw4303997-b.3 switch=y length=0.001 units=ft enabled=true phases=1 
new line.sw4306087-b bus1=node_sw4306087.3 bus2=node_sw4306087-b.3 switch=y length=0.001 units=ft enabled=true phases=1 
new line.aspen_switch bus1=node_sw_4_35_10_3_0002-a.1.2.3 bus2=node_aspen_switch.1.2.3 switch=y length=0.001 units=ft enabled=true phases=3 
new line.sw_4_35_17_3_0001-b bus1=node_via_de_maria.1.2.3 bus2=node_sw_4_35_17_3_0001-b.1.2.3 switch=y length=0.001 units=ft enabled=true phases=3 
new line.sw4500020 bus1=node_sw4500019.3 bus2=node_sw4500020.3 switch=y length=0.001 units=ft enabled=true phases=1 
new line.angel_fire bus1=angel_fire_node_root.1.2.3 bus2=node_angel_fire.1.2.3 switch=y length=0.001 units=ft enabled=true phases=3 
