files/angel_fire/Transformers.dss
new transformer.t4700002 buses=[node_oh4700006.3 node_t4700002.3] xfmrcode=0-kva-1ph-ug 
new transformer.xfmr4302303 buses=[node_oh4302301.3 node_xfmr4302303.3] xfmrcode=0-kva-1ph-ug 
new transformer.xfmr4302888 buses=[node_oh4302547.3 node_xfmr4302888.3] xfmrcode=0-kva-1ph-ug 
new transformer.xfmr4302899 buses=[node_oh4302565.3 node_xfmr4302899.3] xfmrcode=10-kva-1ph 
new transformer.xfmr4302269 buses=[node_oh4302267.3 node_xfmr4302269.3] xfmrcode=10-kva-1ph 
new transformer.xfmr4302273 buses=[node_oh42981.3 node_xfmr4302273.3] xfmrcode=0-kva-1ph-ug 
new transformer.xfmr4302884 buses=[node_oh4302492.3 node_xfmr4302884.3] xfmrcode=0-kva-1ph-ug 
new transformer.xfmr4302232 buses=[node_oh43238.3 node_xfmr4302232.3] xfmrcode=0-kva-1ph-ug 
new transformer.xfmr4304056 buses=[node_oh43241.3 node_xfmr4304056.3] xfmrcode=0-kva-1ph-ug 
new transformer.xfmr4303231 buses=[node_oh4303230.3 node_xfmr4303231.3] xfmrcode=0-kva-1ph-ug 
new transformer.xfmr4308070 buses=[node_oh4303234.3 node_xfmr4308070.3] xfmrcode=15-kva-1ph 
new transformer.t4600133 buses=[node_oh4600029.3 node_t4600133.3] xfmrcode=0-kva-1ph-ug 
new transformer.xfmr4302342 buses=[node_oh43133.3 node_xfmr4302342.3] xfmrcode=0-kva-1ph-ug 
new transformer.t4700014 buses=[node_oh4700034.3 node_t4700014.3] xfmrcode=0-kva-1ph-ug 
new transformer.t4700041 buses=[node_oh4700095.3 node_t4700041.3] xfmrcode=10-kva-1ph 
new transformer.t4700044 buses=[node_oh4700098.3 node_t4700044.3] xfmrcode=0-kva-1ph-ug 
new transformer.t4700027 buses=[node_oh4700115.3 node_t4700027.3] xfmrcode=10-kva-1ph 
new transformer.t4700032 buses=[node_oh4700135.3 node_t4700032.3] xfmrcode=0-kva-1ph-ug 
new transformer.t4500303 buses=[node_ug4500319.3 node_t4500303.3] xfmrcode=0-kva-1ph-ug 
new transformer.t4500257 buses=[node_oh4500026.2 node_t4500257.2] xfmrcode=37-5-kva-1ph 
new transformer.xfmr4306760 buses=[node_oh4306759.3 node_xfmr4306760.3] xfmrcode=0-kva-1ph-ug 
new transformer.xfmr4306788 buses=[node_oh4306787.3 node_xfmr4306788.3] xfmrcode=0-kva-1ph-ug 
new transformer.t4500288 buses=[node_oh4500014.3 node_t4500288.3] xfmrcode=0-kva-1ph-ug 
new transformer.t4500248 buses=[node_oh_4_26_62_1_0001.1 node_t4500248.1] xfmrcode=0-kva-1ph 
new transformer.t4500254 buses=[node_oh4500019.3 node_t4500254.3] xfmrcode=10-kva-1ph 
new transformer.t4500264 buses=[node_oh4500049.3 node_t4500264.3] xfmrcode=0-kva-1ph-ug 
new transformer.t4400103 buses=[node_oh4400213.2 node_t4400103.2] xfmrcode=0-kva-1ph-ug 
new transformer.t4400107 buses=[node_oh4400222.2 node_t4400107.2] xfmrcode=0-kva-1ph-ug 
new transformer.t4400007 buses=[node_oh4400022.3 node_t4400007.3] xfmrcode=15-kva-1ph 
new transformer.t4400117 buses=[node_oh4400241.2 node_t4400117.2] xfmrcode=0-kva-1ph-ug 
new transformer.t4400016 buses=[node_oh4400052.1 node_t4400016.1] xfmrcode=0-kva-1ph 
new transformer.t4400036 buses=[node_oh4400085.1 node_t4400036.1] xfmrcode=0-kva-1ph 
new transformer.t4400043 buses=[node_ug4400007.1 node_t4400043.1] xfmrcode=10-kva-1ph 
new transformer.t4400076 buses=[node_oh4400171.1 node_t4400076.1] xfmrcode=10-kva-1ph 
new transformer.t4400055 buses=[node_oh4400142.1 node_t4400055.1] xfmrcode=10-kva-1ph 
new transformer.t4300003 buses=[node_ug4300004.1 node_t4300003.1] xfmrcode=0-kva-1ph 
new transformer.t4400056 buses=[node_oh4400143.1 node_t4400056.1] xfmrcode=10-kva-1ph 
new transformer.t4400020 buses=[node_oh4400069.3 node_t4400020.3] xfmrcode=0-kva-1ph-ug 
new transformer.t4400021 buses=[node_oh4400071.3 node_t4400021.3] xfmrcode=10-kva-1ph 
new transformer.t4400018 buses=[node_oh4400059.3 node_t4400018.3] xfmrcode=0-kva-1ph-ug 
new transformer.t4390018 buses=[node_oh4390003.1 node_t4390018.1] xfmrcode=0-kva-1ph 
new transformer.t4400124 buses=[node_oh4400259.3 node_t4400124.3] xfmrcode=0-kva-1ph-ug 
new transformer.t4400003 buses=[node_oh4400008.1 node_t4400003.1] xfmrcode=15-kva-1ph 
new transformer.t4400001 buses=[node_oh4400003.3 node_t4400001.3] xfmrcode=0-kva-1ph-ug 
new transformer.t4500252 buses=[node_oh4500015.3 node_t4500252.3] xfmrcode=37-5-kva-1ph 
new transformer.xfmr4302979 buses=[node_oh4302762.1 node_xfmr4302979.1] xfmrcode=0-kva-1ph 
new transformer.xfmr4302936 buses=[node_oh4307179.1.2.3 node_xfmr4302936.1.2.3] xfmrcode=45-kva-3ph-ug 
new transformer.xfmr4302937 buses=[node_oh4307201.1.2.3 node_xfmr4302937.1.2.3] xfmrcode=45-kva-3ph-ug 
new transformer.xfmr4302939 buses=[node_oh4307204.1.2.3 node_xfmr4302939.1.2.3] xfmrcode=45-kva-3ph-ug 
new transformer.xfmr4302941 buses=[node_oh4307205.1.2.3 node_xfmr4302941.1.2.3] xfmrcode=45-kva-3ph-ug 
new transformer.t4600011 buses=[node_ug4600017.3 node_t4600011.3] xfmrcode=0-kva-1ph-ug 
new transformer.t4600136 buses=[node_oh4600089.3 node_t4600136.3] xfmrcode=15-kva-1ph 
new transformer.t4600130 buses=[node_oh4600082.3 node_t4600130.3] xfmrcode=0-kva-1ph-ug 
new transformer.t4600137 buses=[node_oh4600069.3 node_t4600137.3] xfmrcode=0-kva-1ph-ug 
new transformer.t4600001 buses=[node_oh4600034.3 node_t4600001.3] xfmrcode=10-kva-1ph 
new transformer.t4600004 buses=[node_oh4600056.3 node_t4600004.3] xfmrcode=0-kva-1ph-ug 
new transformer.t4600005 buses=[node_oh4600058.3 node_t4600005.3] xfmrcode=0-kva-1ph-ug 
new transformer.t4600128 buses=[node_oh4600060.3 node_t4600128.3] xfmrcode=0-kva-1ph-ug 
new transformer.t4600006 buses=[node_oh4600063.3 node_t4600006.3] xfmrcode=0-kva-1ph-ug 
new transformer.t4600002 buses=[node_oh4600038.3 node_t4600002.3] xfmrcode=10-kva-1ph 
new transformer.t4600003 buses=[node_oh4600048.3 node_t4600003.3] xfmrcode=10-kva-1ph 
new transformer.t4700057 buses=[node_oh4700054.3 node_t4700057.3] xfmrcode=0-kva-1ph-ug 
new transformer.t4700058 buses=[node_oh4700151.3 node_t4700058.3] xfmrcode=0-kva-1ph-ug 
new transformer.t4600134 buses=[node_oh4600030.3 node_t4600134.3] xfmrcode=10-kva-1ph 
new transformer.t4600135 buses=[node_oh4600084.3 node_t4600135.3] xfmrcode=0-kva-1ph-ug 
new transformer.t4700001 buses=[node_oh4700005.3 node_t4700001.3] xfmrcode=0-kva-1ph-ug 
new transformer.t4600140 buses=[node_oh4600086.3 node_t4600140.3] xfmrcode=0-kva-1ph-ug 
new transformer.t4600141 buses=[node_oh4600087.3 node_t4600141.3] xfmrcode=0-kva-1ph-ug 
new transformer.t4600142 buses=[node_oh4600088.3 node_t4600142.3] xfmrcode=0-kva-1ph-ug 
new transformer.t4700003 buses=[node_oh4700007.3 node_t4700003.3] xfmrcode=0-kva-1ph-ug 
new transformer.xfmr4302234 buses=[node_oh42302.3 node_xfmr4302234.3] xfmrcode=0-kva-1ph-ug 
new transformer.xfmr4302235 buses=[node_oh42540.3 node_xfmr4302235.3] xfmrcode=0-kva-1ph-ug 
new transformer.xfmr4304054 buses=[node_oh42666.3 node_xfmr4304054.3] xfmrcode=10-kva-1ph 
new transformer.xfmr4302834 buses=[node_oh4301590.3 node_xfmr4302834.3] xfmrcode=10-kva-1ph 
new transformer.xfmr4302854 buses=[node_oh4301711.3 node_xfmr4302854.3] xfmrcode=0-kva-1ph-ug 
new transformer.xfmr4302238 buses=[node_oh42852.3 node_xfmr4302238.3] xfmrcode=0-kva-1ph-ug 
new transformer.xfmr4302237 buses=[node_oh42853.3 node_xfmr4302237.3] xfmrcode=0-kva-1ph-ug 
new transformer.xfmr4302239 buses=[node_oh42854.3 node_xfmr4302239.3] xfmrcode=0-kva-1ph-ug 
new transformer.xfmr4302229 buses=[node_oh4302228.3 node_xfmr4302229.3] xfmrcode=5-kva-1-ph 
new transformer.xfmr4302856 buses=[node_oh4302046.3 node_xfmr4302856.3] xfmrcode=0-kva-1ph-ug 
new transformer.xfmr4302858 buses=[node_oh4302091.3 node_xfmr4302858.3] xfmrcode=10-kva-1ph 
new transformer.xfmr4302861 buses=[node_oh4302109.3 node_xfmr4302861.3] xfmrcode=0-kva-1ph-ug 
new transformer.xfmr4302863 buses=[node_oh4302125.3 node_xfmr4302863.3] xfmrcode=0-kva-1ph-ug 
new transformer.xfmr4302864 buses=[node_oh4302126.3 node_xfmr4302864.3] xfmrcode=10-kva-1ph 
new transformer.xfmr4302277 buses=[node_oh4302276.3 node_xfmr4302277.3] xfmrcode=10-kva-1ph 
new transformer.xfmr4302279 buses=[node_oh4302278.3 node_xfmr4302279.3] xfmrcode=10-kva-1ph 
new transformer.xfmr4302282 buses=[node_oh4302281.3 node_xfmr4302282.3] xfmrcode=10-kva-1ph 
new transformer.xfmr4302287 buses=[node_oh4302284.3 node_xfmr4302287.3] xfmrcode=10-kva-1ph 
new transformer.xfmr4302288 buses=[node_oh4302285.3 node_xfmr4302288.3] xfmrcode=10-kva-1ph 
new transformer.xfmr4302291 buses=[node_oh4302289.3 node_xfmr4302291.3] xfmrcode=15-kva-1ph 
new transformer.xfmr4302865 buses=[node_oh4302148.3 node_xfmr4302865.3] xfmrcode=0-kva-1ph-ug 
new transformer.xfmr4302295 buses=[node_oh4302294.3 node_xfmr4302295.3] xfmrcode=10-kva-1ph 
new transformer.xfmr4302298 buses=[node_oh4302297.3 node_xfmr4302298.3] xfmrcode=10-kva-1ph 
new transformer.xfmr4308072 buses=[node_oh4302322.3 node_xfmr4308072.3] xfmrcode=0-kva-1ph-ug 
...