files/angel_fire/Fuses.dss
new line.back_basin bus1=node_angel_fire.1.2.3 bus2=node_back_basin.1.2.3 switch=y length=0.001 units=ft enabled=true phases=3 
new line.plaza bus1=node_angel_fire.1.2.3 bus2=node_plaza.1.2.3 switch=y length=0.001 units=ft enabled=true phases=3 
new line.black_lake bus1=node_angel_fire.1.2.3 bus2=node_black_lake.1.2.3 switch=y length=0.001 units=ft enabled=true phases=3 
new line.af_eagle_nest bus1=node_angel_fire.1.2.3 bus2=node_af_eagle_nest.1.2.3 switch=y length=0.001 units=ft enabled=true phases=3 
new line.af500 bus1=node_angel_fire.1.2.3 bus2=node_af500.1.2.3 switch=y length=0.001 units=ft enabled=true phases=3 
new line.ocd21004917 bus1=node_ug_4_26_72_2_0001.1.2.3 bus2=node_ocd21004917.1.2.3 switch=y length=0.001 units=ft enabled=true phases=3 
new line.4500009 bus1=node_oh_4_26_73_1_0001.1.2.3 bus2=node_4500009.1.2.3 switch=y length=0.001 units=ft enabled=true phases=3 
new line.4_26_85_2_0001 bus1=node_ug_4_26_85_2_0001.3 bus2=node_4_26_85_2_0001.3 switch=y length=0.001 units=ft enabled=true phases=1 
new line.ocd4302932 bus1=node_oh4307206.1.2.3 bus2=node_ocd4302932.1.2.3 switch=y length=0.001 units=ft enabled=true phases=3 
new line.ocd4302935 bus1=node_ug4307161.1.2.3 bus2=node_ocd4302935.1.2.3 switch=y length=0.001 units=ft enabled=true phases=3 
new line.ocd21004916 bus1=node_ug4500324.1.2.3 bus2=node_ocd21004916.1.2.3 switch=y length=0.001 units=ft enabled=true phases=3 
new line.ocd21004919 bus1=node_ug_4_26_72_2_0004.1.2.3 bus2=node_ocd21004919.1.2.3 switch=y length=0.001 units=ft enabled=true phases=3 
new line.ocd21004957 bus1=node_ug4500390.1.2.3 bus2=node_ocd21004957.1.2.3 switch=y length=0.001 units=ft enabled=true phases=3 
new line.ocd21004993 bus1=node_ug_4_35_10_3_0003.1.2.3 bus2=node_ocd21004993.1.2.3 switch=y length=0.001 units=ft enabled=true phases=3 
new line.ocd21004971 bus1=node_ug_4_35_10_3_0004.1.2.3 bus2=node_ocd21004971.1.2.3 switch=y length=0.001 units=ft enabled=true phases=3 
new line.ocd21004992 bus1=node_ug_4_26_91_3_3.1 bus2=node_ocd21004992.1 switch=y length=0.001 units=ft enabled=true phases=1 
new line.fuse_prefix_4_25_100_1_00 bus1=node_ug_4_35_18_1_0003.1.2.3 bus2=node_fuse_prefix_4_25_100_1_00.1.2.3 switch=y length=0.001 units=ft enabled=true phases=3 
new line.fuse_prefix_4_26_91_2_000 bus1=node_ug_4_26_91_1_0003.1 bus2=node_fuse_prefix_4_26_91_2_000.1 switch=y length=0.001 units=ft enabled=true phases=1 
new line.fuse_prefix_4_26_92_1_000 bus1=node_ug_4_26_92_1_0001.1 bus2=node_fuse_prefix_4_26_92_1_000.1 switch=y length=0.001 units=ft enabled=true phases=1 
new line.fuse_prefix_4_26_92_1_001 bus1=node_ug_4_26_92_1_0002.1 bus2=node_fuse_prefix_4_26_92_1_001.1 switch=y length=0.001 units=ft enabled=true phases=1 
new line.ocd21004959 bus1=node_ug4500046.1.2.3 bus2=node_ocd21004959.1.2.3 switch=y length=0.001 units=ft enabled=true phases=3 
new line.ocd21004960 bus1=node_ug4500045.1.2.3 bus2=node_ocd21004960.1.2.3 switch=y length=0.001 units=ft enabled=true phases=3 
new line.ocd21004989 bus1=node_ug_4_26_82_3_0002.1.2.3 bus2=node_ocd21004989.1.2.3 switch=y length=0.001 units=ft enabled=true phases=3 
new line.ocd21004988 bus1=node_ug_4_26_82_3_0001.1.2.3 bus2=node_ocd21004988.1.2.3 switch=y length=0.001 units=ft enabled=true phases=3 
new line.ocd21004958 bus1=node_ug_4_25_79_2_0001.3 bus2=node_ocd21004958.3 switch=y length=0.001 units=ft enabled=true phases=1 
new line.ocd21004970 bus1=node_ug4500370.1.2.3 bus2=node_ocd21004970.1.2.3 switch=y length=0.001 units=ft enabled=true phases=3 
new line.ocd21004777 bus1=node_ug_4_25_88_1_2.1.2.3 bus2=node_ocd21004777.1.2.3 switch=y length=0.001 units=ft enabled=true phases=3 
new line.ocd21004776 bus1=node_ug_4_25_88_2_0002.1.2.3 bus2=node_ocd21004776.1.2.3 switch=y length=0.001 units=ft enabled=true phases=3 
new line.ocd21004775 bus1=node_ug_4_25_88_2_0001.1.2.3 bus2=node_ocd21004775.1.2.3 switch=y length=0.001 units=ft enabled=true phases=3 
new line.ocd21004774 bus1=node_ug_4_25_78_3_0004.1.2.3 bus2=node_ocd21004774.1.2.3 switch=y length=0.001 units=ft enabled=true phases=3 
new line.ocd21004773 bus1=node_ug_4_25_78_3_0003.1.2.3 bus2=node_ocd21004773.1.2.3 switch=y length=0.001 units=ft enabled=true phases=3 
new line.ocd21004772 bus1=node_ug_4_25_78_3_0002.1.2.3 bus2=node_ocd21004772.1.2.3 switch=y length=0.001 units=ft enabled=true phases=3 
new line.ocd21004771 bus1=node_ug_4_25_78_3_0001.1.2.3 bus2=node_ocd21004771.1.2.3 switch=y length=0.001 units=ft enabled=true phases=3 
new line.ocd21004770 bus1=node_ug_4_25_88_1_0002.1.2.3 bus2=node_ocd21004770.1.2.3 switch=y length=0.001 units=ft enabled=true phases=3 
new line.ocd21004769 bus1=node_ug_4_25_88_1_0001.1.2.3 bus2=node_ocd21004769.1.2.3 switch=y length=0.001 units=ft enabled=true phases=3 
new line.ocd21004768 bus1=node_ug_4_25_87_2_0002.1.2.3 bus2=node_ocd21004768.1.2.3 switch=y length=0.001 units=ft enabled=true phases=3 
...